# ================================================================
# Orca input file made by Matty Jones
# ================================================================
! ZINDO/S 
! NOPOP
! NOMOPRINT
* xyz 0   1
 C  -4.52180  -1.76309  -2.33981
 C  -3.29923  -1.10953  -2.17828
 C  -2.41983  -1.73890  -1.24297
 C  -2.95067  -2.89527  -0.66303
 S  -4.45893  -3.07561  -1.32864
 H  -3.11268  0.04823  -2.07320
 C  -0.94377  -1.22070  -0.83422
 C  -0.73836  0.37038  -0.27390
 C  0.87427  0.83366  0.03661
 H  0.87156  1.98690  -0.13296
 H  1.48873  0.36747  -0.82287
 H  -1.16619  1.08582  -1.06481
 H  -1.32459  0.47200  0.71101
 H  -0.50838  -1.90247  0.00786
 H  -0.24203  -1.32191  -1.76351
 C  1.63646  0.59093  1.45997
 C  3.29019  1.00162  1.42875
 C  3.70361  2.59220  1.79206
 H  4.85796  2.68272  1.82931
 H  3.25821  2.88531  2.81784
 H  3.28892  3.29105  0.96853
 H  3.82886  0.31455  2.18175
 H  3.69550  0.80301  0.36916
 H  1.56178  -0.52321  1.75485
 H  1.13851  1.22966  2.28325
 H  -5.32182  -1.48004  -2.97499
 H  -2.48629  -3.52479  0.05227
*
