# ================================================================
# Orca input file made by Matty Jones
# ================================================================
! ZINDO/S 
! NOPOP
! NOMOPRINT
* xyz 0   1
 C  0.18620  2.08871  2.34033
 C  0.52042  0.92512  1.64588
 C  1.80190  0.38993  1.98594
 C  2.48301  1.13468  2.95380
 S  1.47799  2.39838  3.33254
 H  -0.08805  0.66015  0.71843
 C  2.18433  -0.95531  1.18115
 C  1.52435  -0.86513  -0.42160
 C  -0.07968  -1.50880  -0.35384
 H  0.15305  -2.65232  -0.46513
 H  -0.43097  -1.37180  0.74418
 H  1.50197  0.21519  -0.79492
 H  2.15739  -1.51784  -1.11853
 H  1.76178  -1.89429  1.70630
 H  3.33439  -1.05899  1.07552
 C  -1.41708  -1.29565  -1.28976
 C  -1.69942  -0.12139  -2.48295
 C  -2.65972  1.18962  -2.02386
 H  -3.70750  1.07830  -2.50544
 H  -2.17094  2.17110  -2.39365
 H  -2.76553  1.21735  -0.87291
 H  -2.22655  -0.64325  -3.36611
 H  -0.67950  0.28559  -2.82743
 H  -1.59632  -2.30689  -1.83674
 H  -2.30117  -1.15115  -0.54353
 H  -0.70546  2.65505  2.25204
 H  3.44110  0.93364  3.36030
*
