# ================================================================
# Orca input file made by Matty Jones
# ================================================================
! ZINDO/S 
! NOPOP
! NOMOPRINT
* xyz 0   1
 C  1.86100  4.17243  -0.99852
 C  1.25877  2.91626  -1.08368
 C  1.79559  1.94880  -0.17808
 C  2.82691  2.44354  0.62624
 S  3.01763  4.02963  0.18085
 H  0.41722  2.65707  -1.81109
 C  1.18127  0.44641  -0.18566
 C  0.82874  -0.41997  1.24121
 C  0.17455  -1.98536  1.06508
 H  0.62924  -2.40778  0.08652
 H  0.60014  -2.60274  1.95082
 H  1.81100  -0.57556  1.81548
 H  0.09529  0.20698  1.86477
 H  1.92390  -0.24462  -0.77172
 H  0.17474  0.45559  -0.77688
 C  -1.43901  -2.23581  1.02203
 C  -2.19085  -2.37289  -0.48907
 C  -2.85595  -0.96289  -1.11507
 H  -3.80896  -1.23002  -1.71695
 H  -2.08870  -0.45070  -1.81294
 H  -3.13596  -0.24663  -0.25069
 H  -1.40524  -2.75912  -1.23958
 H  -3.03601  -3.15245  -0.39032
 H  -1.67484  -3.21755  1.59171
 H  -1.96111  -1.36373  1.57751
 H  1.62807  5.03572  -1.56778
 H  3.37256  1.91539  1.36579
*
