# ================================================================
# Orca input file made by Matty Jones
# ================================================================
! ZINDO/S 
! NOPOP
! NOMOPRINT
* xyz 0   1
 C  2.31413  3.95390  -1.42571
 C  1.62951  2.87784  -0.85889
 C  2.38055  2.16027  0.12361
 C  3.66469  2.67231  0.33365
 S  3.80136  3.96769  -0.69287
 H  0.58182  2.54305  -1.16985
 C  1.79929  0.89601  0.93309
 C  0.97655  -0.42523  0.23978
 C  -0.71638  -0.44261  0.07573
 H  -1.18111  -0.19914  1.10307
 H  -1.01337  0.37248  -0.68362
 H  1.24500  -1.34418  0.88620
 H  1.41069  -0.56434  -0.81934
 H  1.06498  1.29642  1.75396
 H  2.67793  0.37064  1.48775
 C  -1.22923  -1.90584  -0.44155
 C  -2.89432  -2.19604  -0.54371
 C  -3.57397  -2.89398  0.83186
 H  -4.47285  -3.55322  0.51875
 H  -3.93634  -2.05798  1.54506
 H  -2.78545  -3.54837  1.36887
 H  -3.07429  -2.91288  -1.42841
 H  -3.42691  -1.19466  -0.74326
 H  -0.79984  -2.08823  -1.50214
 H  -0.79814  -2.71411  0.26833
 H  1.95832  4.62156  -2.16817
 H  4.39739  2.30865  1.00783
*
