# ================================================================
# Orca input file made by Matty Jones
# ================================================================
! ZINDO/S 
! NOPOP
! NOMOPRINT
* xyz 0   1
 C  -4.61034  -1.61024  -2.75791
 C  -3.46372  -0.86269  -2.48525
 C  -2.52324  -1.52493  -1.63602
 C  -2.92927  -2.80184  -1.23608
 S  -4.40972  -3.04092  -1.94428
 H  -3.28125  0.18703  -2.89988
 C  -1.11648  -0.79315  -1.23446
 C  -0.34024  -0.70065  0.31141
 C  1.23937  0.02239  0.38785
 H  1.69581  -0.24997  -0.64456
 H  1.77171  -0.63047  1.19090
 H  -0.24000  -1.76304  0.71899
 H  -1.01877  -0.07028  0.99043
 H  -0.28546  -1.26826  -1.90703
 H  -1.20508  0.33006  -1.53972
 C  1.71880  1.56253  0.69962
 C  2.34375  1.99923  2.22614
 C  4.02143  1.89005  2.42397
 H  4.37121  0.82153  2.15455
 H  4.28788  2.11978  3.52700
 H  4.54276  2.65866  1.73412
 H  2.05377  3.09935  2.41361
 H  1.85034  1.32770  3.01894
 H  0.81387  2.26104  0.51813
 H  2.54971  1.83671  -0.06088
 H  -5.43546  -1.32375  -3.35850
 H  -2.40136  -3.47587  -0.61110
*
