# ================================================================
# Orca input file made by Matty Jones
# ================================================================
! ZINDO/S 
! NOPOP
! NOMOPRINT
* xyz 0   1
 C  2.59644  3.65357  0.98384
 C  1.99868  2.44594  0.62023
 C  2.50043  1.30963  1.32825
 C  3.49944  1.62157  2.25562
 S  3.70644  3.26379  2.15219
 H  1.17007  2.33946  -0.15789
 C  1.89975  -0.17024  1.04099
 C  0.21047  -0.46377  1.22459
 C  -1.21341  -0.35216  0.26542
 H  -1.90552  -1.17592  0.71135
 H  -1.66036  0.67671  0.57509
 H  0.19398  -1.58026  1.54389
 H  -0.05671  0.18207  2.15084
 H  2.43622  -0.98617  1.66583
 H  2.10249  -0.42257  -0.08560
 C  -1.36940  -0.44641  -1.35540
 C  -1.86455  -1.94826  -1.97877
 C  -3.53472  -2.16717  -2.11277
 H  -3.75857  -3.29339  -2.25993
 H  -3.92815  -1.57205  -3.02320
 H  -4.05078  -1.79157  -1.14801
 H  -1.41614  -2.05151  -3.03523
 H  -1.44799  -2.77688  -1.29735
 H  -2.15448  0.33096  -1.70264
 H  -0.35518  -0.19139  -1.84794
 H  2.38532  4.61683  0.59504
 H  4.01623  0.94918  2.89156
*
