# ================================================================
# Orca input file made by Matty Jones
# ================================================================
! ZINDO/S 
! NOPOP
! NOMOPRINT
* xyz 0   1
 C  -3.37060  -1.71040  -2.89992
 C  -2.46792  -0.95796  -2.14699
 C  -1.60766  -1.73989  -1.31464
 C  -1.83220  -3.11672  -1.41080
 S  -3.06592  -3.29169  -2.50522
 H  -1.87124  0.00901  -2.46398
 C  -0.40010  -1.36594  -0.27991
 C  1.03525  -0.52565  -0.67038
 C  1.28858  1.12096  -0.46289
 H  1.83124  1.52570  -1.40021
 H  0.26622  1.64557  -0.36072
 H  1.86896  -1.06746  -0.07538
 H  1.20833  -0.73603  -1.79612
 H  -0.86878  -0.70268  0.55948
 H  -0.01391  -2.33196  0.23717
 C  2.20538  1.40232  0.86167
 C  1.37372  1.23697  2.31892
 C  0.48057  2.59752  2.72800
 H  0.86653  3.51397  2.13604
 H  0.57915  2.79867  3.86300
 H  -0.63111  2.40806  2.46289
 H  0.66945  0.32911  2.24493
 H  2.14907  1.05133  3.15259
 H  3.09644  0.66395  0.88255
 H  2.62910  2.47796  0.81317
 H  -4.09765  -1.34747  -3.58056
 H  -1.32091  -3.88726  -0.89268
*
