# ================================================================
# Orca input file made by Matty Jones
# ================================================================
! ZINDO/S 
! NOPOP
! NOMOPRINT
* xyz 0   1
 C  -3.31285  -2.17483  2.06170
 C  -2.11557  -1.80997  1.44419
 C  -0.94416  -2.25140  2.13498
 C  -1.21783  -2.96845  3.30385
 S  -2.87150  -3.01785  3.41950
 H  -1.85105  -1.83156  0.28686
 C  0.51125  -1.87756  1.52426
 C  0.88209  -0.26371  1.01920
 C  0.52524  0.34829  -0.54368
 H  0.96353  -0.39889  -1.30655
 H  -0.62463  0.36367  -0.64391
 H  0.33083  0.42578  1.75988
 H  2.02022  -0.14191  1.15511
 H  0.70341  -2.53367  0.58867
 H  1.33234  -2.13156  2.31470
 C  1.11129  1.84479  -0.85939
 C  0.53906  2.70755  -2.21431
 C  1.28058  2.64802  -3.72825
 H  2.42815  2.60758  -3.59740
 H  0.99301  3.60180  -4.32165
 H  0.91286  1.71423  -4.30197
 H  -0.56283  2.40643  -2.36180
 H  0.60972  3.80706  -1.89776
 H  0.91127  2.51733  0.06078
 H  2.25779  1.75925  -1.00452
 H  -4.29683  -1.95860  1.73213
 H  -0.51540  -3.39180  3.97539
*
