# ================================================================
# Orca input file made by Matty Jones
# ================================================================
! ZINDO/S 
! NOPOP
! NOMOPRINT
* xyz 0   1
 C  -4.51057  -0.89562  0.75961
 C  -3.18392  -0.69590  0.37489
 C  -2.22419  -1.24657  1.28040
 C  -2.79590  -1.88433  2.38572
 S  -4.43568  -1.73543  2.18727
 H  -2.71118  0.29967  -0.05490
 C  -0.63055  -1.12159  1.05233
 C  -0.12456  0.48226  0.78959
 C  1.49734  0.90778  0.53844
 H  2.10456  -0.06953  0.44893
 H  1.85841  1.47940  1.47733
 H  -0.68904  0.84694  -0.14683
 H  -0.48198  1.08691  1.70699
 H  -0.04461  -1.47986  1.98783
 H  -0.30277  -1.75710  0.14038
 C  1.71354  1.84331  -0.77966
 C  2.26419  1.15944  -2.22318
 C  3.07029  -0.30608  -2.07079
 H  3.84479  -0.22963  -1.21335
 H  3.62049  -0.53953  -3.06264
 H  2.31055  -1.14664  -1.83990
 H  1.34941  0.99049  -2.90554
 H  2.97865  1.91336  -2.72414
 H  0.71107  2.36840  -1.03414
 H  2.48153  2.67013  -0.50519
 H  -5.38223  -0.57750  0.24714
 H  -2.28763  -2.36278  3.18343
*
