# ================================================================
# Orca input file made by Matty Jones
# ================================================================
! ZINDO/S 
! NOPOP
! NOMOPRINT
* xyz 0   1
 C  2.47220  3.36553  -1.10394
 C  1.86464  2.19806  -0.63940
 C  2.43457  1.68337  0.56664
 C  3.49753  2.44828  1.05690
 S  3.67379  3.70350  -0.01258
 H  0.99499  1.68034  -1.16529
 C  1.85450  0.33572  1.24296
 C  0.18911  0.16043  1.59672
 C  -1.11692  -0.44375  0.68700
 H  -1.63580  -1.20877  1.39484
 H  -1.83686  0.46074  0.56452
 H  0.18574  -0.49768  2.55317
 H  -0.14008  1.23094  1.89345
 H  2.35937  0.10770  2.25666
 H  2.09271  -0.55372  0.52982
 C  -0.99852  -1.16270  -0.76780
 C  -2.53617  -1.55542  -1.38065
 C  -3.14796  -3.06171  -0.94371
 H  -4.29196  -3.07316  -1.12392
 H  -2.93018  -3.25918  0.17483
 H  -2.64710  -3.87983  -1.59031
 H  -2.47479  -1.51579  -2.53078
 H  -3.27957  -0.75571  -1.01035
 H  -0.48672  -0.45336  -1.52041
 H  -0.38603  -2.13752  -0.68628
 H  2.21887  3.91936  -1.97152
 H  4.07065  2.26435  1.92942
*
