# ================================================================
# Orca input file made by Matty Jones
# ================================================================
! ZINDO/S 
! NOPOP
! NOMOPRINT
* xyz 0   1
 C  1.70520  4.22653  -2.83555
 C  0.98141  3.21504  -2.20237
 C  1.79113  2.27405  -1.49304
 C  3.16121  2.54386  -1.56649
 S  3.29675  3.91322  -2.49218
 H  -0.15681  3.13454  -2.23383
 C  1.22046  0.99357  -0.67511
 C  -0.11305  1.10241  0.39424
 C  -0.49516  -0.34903  1.22852
 H  -0.80364  0.02746  2.28672
 H  0.52688  -0.88956  1.33137
 H  -1.03255  1.39222  -0.23316
 H  0.11371  1.91519  1.17165
 H  2.08435  0.56583  -0.01148
 H  0.92944  0.16587  -1.43713
 C  -1.59463  -1.49874  0.83460
 C  -1.26292  -2.95068  1.66925
 C  -2.31180  -4.25684  1.49053
 H  -2.34691  -4.58065  0.38132
 H  -3.36908  -3.94897  1.84431
 H  -1.92840  -5.13778  2.13863
 H  -0.23004  -3.30506  1.29130
 H  -1.19266  -2.70435  2.79223
 H  -1.58998  -1.70681  -0.29640
 H  -2.65015  -1.15698  1.15937
 H  1.31888  5.02639  -3.41400
 H  3.94837  1.98927  -1.12331
*
