# ================================================================
# Orca input file made by Matty Jones
# ================================================================
! ZINDO/S 
! NOPOP
! NOMOPRINT
* xyz 0   1
 C  4.88832  -0.27237  0.29302
 C  3.80476  -0.76383  -0.43654
 C  2.65577  0.08695  -0.42007
 C  2.83296  1.25610  0.32626
 S  4.38014  1.17678  0.91817
 H  3.37790  -1.84260  -0.12397
 C  1.36692  -0.40940  -1.25430
 C  -0.21767  -0.07816  -0.82199
 C  -0.84201  -1.13533  0.32926
 H  -0.54641  -2.21325  0.03506
 H  -0.35206  -0.87926  1.34521
 H  -0.28340  0.99648  -0.42529
 H  -0.86694  -0.17220  -1.77375
 H  1.41388  -1.57843  -1.34217
 H  1.47296  -0.00066  -2.34902
 C  -2.45950  -1.02023  0.44759
 C  -3.01074  0.41272  1.14606
 C  -3.34590  1.58155  -0.02203
 H  -2.62220  1.46526  -0.91694
 H  -3.22116  2.63393  0.44231
 H  -4.43466  1.44283  -0.38910
 H  -3.97144  0.19485  1.74075
 H  -2.19779  0.82163  1.85035
 H  -2.93359  -1.11330  -0.60367
 H  -2.85074  -1.89171  1.10301
 H  5.83627  -0.72924  0.42056
 H  2.12633  2.03086  0.48125
*
