# ================================================================
# Orca input file made by Matty Jones
# ================================================================
! ZINDO/S 
! NOPOP
! NOMOPRINT
* xyz 0   1
 C  4.64406  1.12752  -1.73083
 C  3.61283  0.28990  -1.30321
 C  2.53658  0.97277  -0.65542
 C  2.71888  2.35659  -0.57110
 S  4.18152  2.65817  -1.29233
 H  3.62944  -0.84008  -1.46511
 C  1.36156  -0.02678  -0.17597
 C  -0.25881  0.15168  -0.60113
 C  -1.30941  0.99559  0.38773
 H  -0.73156  1.84982  0.90060
 H  -2.15289  1.44212  -0.26332
 H  -0.26698  0.68180  -1.63117
 H  -0.68595  -0.91356  -0.74066
 H  1.35808  -0.02587  0.99620
 H  1.62728  -1.12035  -0.49973
 C  -1.93837  0.00323  1.52216
 C  -3.27587  -0.93583  1.07664
 C  -2.92398  -2.50227  0.56112
 H  -2.18851  -2.99332  1.30765
 H  -2.45031  -2.47015  -0.49278
 H  -3.90461  -3.11661  0.52608
 H  -3.82247  -0.39603  0.21784
 H  -3.97397  -1.01176  1.99027
 H  -1.11435  -0.73064  1.87583
 H  -2.26745  0.64470  2.42827
 H  5.53508  0.84476  -2.23055
 H  2.06015  3.06461  -0.13708
*
