# ================================================================
# Orca input file made by Matty Jones
# ================================================================
! ZINDO/S 
! NOPOP
! NOMOPRINT
* xyz 0   1
 C  -1.22377  -2.09406  -3.79940
 C  -0.63422  -1.64442  -2.61697
 C  -1.44023  -0.72532  -1.87545
 C  -2.67246  -0.44781  -2.47538
 S  -2.69947  -1.34165  -3.87207
 H  0.18988  -2.22047  -2.06499
 C  -0.77392  -0.18064  -0.51793
 C  0.83122  0.30201  -0.87215
 C  1.95881  0.85278  0.24979
 H  1.89144  2.00951  0.25484
 H  3.00242  0.55918  -0.16737
 H  1.35530  -0.59594  -1.37492
 H  0.71880  1.14742  -1.65456
 H  -1.35144  0.74117  -0.12206
 H  -0.74280  -1.00951  0.28896
 C  1.85312  0.30488  1.77553
 C  0.94469  1.24988  2.83342
 C  -0.64198  0.74364  3.04411
 H  -1.19128  0.70792  2.03175
 H  -1.18301  1.48762  3.74825
 H  -0.64016  -0.30958  3.52607
 H  1.46758  1.24110  3.86124
 H  0.92300  2.32981  2.42775
 H  2.92006  0.22160  2.22083
 H  1.38338  -0.75432  1.76666
 H  -0.81442  -2.77334  -4.50269
 H  -3.43056  0.19854  -2.11327
*
