# ================================================================
# Orca input file made by Matty Jones
# ================================================================
! ZINDO/S 
! NOPOP
! NOMOPRINT
* xyz 0   1
 C  1.07889  4.62392  -2.38516
 C  0.82850  3.25208  -2.44236
 C  1.11240  2.55556  -1.22642
 C  1.58938  3.38158  -0.20391
 S  1.63411  4.90875  -0.84903
 H  0.41749  2.72454  -3.36903
 C  0.87958  0.94695  -1.13839
 C  0.49526  -0.08222  0.20133
 C  -1.08358  -0.32802  0.77519
 H  -1.42998  0.68052  1.22617
 H  -1.74608  -0.57347  -0.13849
 H  1.19661  0.09981  1.07563
 H  0.78005  -1.13619  -0.21824
 H  1.85404  0.44820  -1.55399
 H  0.01841  0.68717  -1.88582
 C  -1.26555  -1.49167  1.90989
 C  -1.65819  -3.03216  1.31483
 C  -0.35346  -4.04067  0.98156
 H  0.58955  -3.40268  0.77836
 H  -0.59575  -4.68298  0.04947
 H  -0.16529  -4.73412  1.88952
 H  -2.25902  -2.89286  0.34115
 H  -2.32074  -3.55583  2.09990
 H  -0.28756  -1.59589  2.51758
 H  -2.11660  -1.18654  2.63264
 H  0.94280  5.33399  -3.16033
 H  1.86471  3.09222  0.77796
*
