# ================================================================
# Orca input file made by Matty Jones
# ================================================================
! ZINDO/S 
! NOPOP
! NOMOPRINT
* xyz 0   1
 C  -1.98733  -3.35684  -3.04280
 C  -0.86809  -2.89906  -2.34592
 C  -1.09216  -1.69548  -1.60738
 C  -2.39490  -1.20038  -1.72166
 S  -3.18978  -2.26290  -2.71647
 H  0.14508  -3.42411  -2.38649
 C  0.16663  -1.11442  -0.78007
 C  0.70903  0.48176  -1.00595
 C  0.03452  1.75589  -0.14552
 H  -0.92152  2.08153  -0.70039
 H  0.79431  2.63398  -0.23975
 H  1.83988  0.47645  -0.76517
 H  0.57125  0.71881  -2.12919
 H  -0.04660  -1.24243  0.35840
 H  1.10841  -1.76838  -1.01676
 C  -0.26330  1.52544  1.43705
 C  0.88069  2.14026  2.52081
 C  2.11844  1.10905  2.99827
 H  1.94306  0.05341  2.56061
 H  2.13731  1.05130  4.15508
 H  3.13004  1.52513  2.61872
 H  1.35925  3.07214  2.03893
 H  0.30684  2.46042  3.47086
 H  -0.36170  0.39752  1.66541
 H  -1.27350  2.03096  1.69909
 H  -2.05448  -4.22156  -3.65219
 H  -2.79138  -0.32850  -1.26753
*
