# ================================================================
# Orca input file made by Matty Jones
# ================================================================
! ZINDO/S 
! NOPOP
! NOMOPRINT
* xyz 0   1
 C  -2.32015  -4.43738  -0.05740
 C  -1.44816  -3.35802  0.09271
 C  -2.00584  -2.25179  0.80652
 C  -3.32484  -2.45868  1.22215
 S  -3.72601  -3.97805  0.69205
 H  -0.35499  -3.35712  -0.23349
 C  -0.92052  -1.04366  0.93918
 C  -1.03122  0.58839  0.47128
 C  0.53083  1.24816  0.74639
 H  0.58980  1.44561  1.88568
 H  1.29670  0.41992  0.48252
 H  -1.28978  0.66181  -0.64177
 H  -1.80019  1.13838  1.11611
 H  -0.67039  -0.96079  2.08515
 H  0.07088  -1.38830  0.41882
 C  0.99347  2.60359  -0.03553
 C  1.78376  2.35763  -1.52334
 C  3.46550  2.22661  -1.47522
 H  3.82632  2.22637  -0.37668
 H  3.93538  3.12219  -2.03863
 H  3.78621  1.23961  -1.98865
 H  1.36595  1.38984  -1.98803
 H  1.52377  3.25164  -2.20336
 H  0.06481  3.25734  -0.24836
 H  1.72312  3.19895  0.63631
 H  -2.12483  -5.35689  -0.54724
 H  -3.93959  -1.78537  1.76283
*
