# ================================================================
# Orca input file made by Matty Jones
# ================================================================
! ZINDO/S 
! NOPOP
! NOMOPRINT
* xyz 0   1
 C  -2.54765  -3.28247  -1.68119
 C  -1.70202  -2.30212  -1.15995
 C  -2.35588  -1.36224  -0.30360
 C  -3.72472  -1.60162  -0.14787
 S  -4.04942  -2.94469  -1.06500
 H  -0.58101  -2.25437  -1.37405
 C  -1.56015  -0.15593  0.39849
 C  -0.49653  0.71535  -0.58463
 C  0.18530  2.02183  0.24327
 H  -0.67499  2.53705  0.82444
 H  0.56536  2.76049  -0.56527
 H  0.34793  0.01504  -0.92986
 H  -1.07727  1.11375  -1.49376
 H  -2.24915  0.66009  0.82393
 H  -0.92719  -0.58414  1.28347
 C  1.39799  1.70629  1.27854
 C  2.94517  1.59434  0.61770
 C  3.39870  0.01280  0.26472
 H  4.43935  -0.19332  0.72892
 H  3.45120  -0.12530  -0.88280
 H  2.62757  -0.72773  0.70758
 H  2.97428  2.20819  -0.35714
 H  3.69654  2.03377  1.37238
 H  1.17660  0.71524  1.83396
 H  1.43627  2.55728  2.06676
 H  -2.28516  -4.07572  -2.33347
 H  -4.41113  -1.04186  0.43445
*
