# ================================================================
# Orca input file made by Matty Jones
# ================================================================
! ZINDO/S 
! NOPOP
! NOMOPRINT
* xyz 0   1
 C  3.83196  -0.87630  -2.50656
 C  2.46924  -1.11576  -2.32334
 C  1.80483  -0.12991  -1.52903
 C  2.64715  0.89315  -1.08278
 S  4.14853  0.52925  -1.68600
 H  1.91999  -2.01494  -2.76489
 C  0.23942  -0.12090  -1.14029
 C  -0.46579  -1.41180  -0.31021
 C  -0.34771  -1.15704  1.35889
 H  -0.20813  -2.19430  1.85467
 H  0.60585  -0.53051  1.55703
 H  -1.57606  -1.48604  -0.60008
 H  0.08135  -2.38470  -0.57961
 H  -0.00577  0.83378  -0.52021
 H  -0.37904  -0.03418  -2.13265
 C  -1.62835  -0.41729  2.03949
 C  -1.62792  1.26529  1.90280
 C  -2.77944  1.97485  0.89324
 H  -2.24745  2.68325  0.14739
 H  -3.54479  2.59099  1.50243
 H  -3.34016  1.14803  0.30828
 H  -1.62846  1.62286  2.98709
 H  -0.61748  1.55033  1.43182
 H  -2.60309  -0.81155  1.56025
 H  -1.64990  -0.66510  3.17124
 H  4.51955  -1.46819  -3.05471
 H  2.38165  1.72675  -0.48426
*
