# ================================================================
# Orca input file made by Matty Jones
# ================================================================
! ZINDO/S 
! NOPOP
! NOMOPRINT
* xyz 0   1
 C  -1.86757  -3.37443  -2.73409
 C  -1.28614  -2.71261  -1.65158
 C  -2.12835  -1.72663  -1.04926
 C  -3.38113  -1.60929  -1.65924
 S  -3.38084  -2.71608  -2.89433
 H  -0.22856  -2.92338  -1.27490
 C  -1.71157  -0.79263  0.20665
 C  -0.39697  0.25372  -0.02742
 C  0.01817  1.29928  1.24379
 H  -0.96076  1.77700  1.63375
 H  0.48767  0.67492  2.09194
 H  0.52724  -0.38803  -0.26891
 H  -0.66239  0.91248  -0.93620
 H  -2.60334  -0.17005  0.60923
 H  -1.37992  -1.49529  1.08304
 C  1.03492  2.48118  0.75899
 C  2.69833  2.19570  0.81257
 C  3.14784  0.74066  1.51873
 H  4.29159  0.60029  1.40573
 H  2.59834  -0.13280  0.99763
 H  2.87164  0.76293  2.64268
 H  3.09053  2.19724  -0.27309
 H  3.19623  3.05509  1.39804
 H  0.78145  2.76350  -0.33634
 H  0.84343  3.41520  1.41990
 H  -1.43329  -4.13714  -3.32847
 H  -4.16654  -0.95080  -1.38884
*
