# ================================================================
# Orca input file made by Matty Jones
# ================================================================
! ZINDO/S 
! NOPOP
! NOMOPRINT
* xyz 0   1
 C  -7.11131  -28.98878  -9.13943
 C  -6.77709  -30.15237  -9.83387
 C  -5.49561  -30.68755  -9.49381
 C  -4.81450  -29.94280  -8.52595
 S  -5.81952  -28.67911  -8.14721
 H  -7.38556  -30.41734  -10.76132
 C  -5.11318  -32.03280  -10.29860
 C  -5.77316  -31.94262  -11.90135
 C  -7.37719  -32.58629  -11.83359
 H  -7.14446  -33.72981  -11.94488
 H  -7.72848  -32.44929  -10.73558
 H  -5.79554  -30.86229  -12.27467
 H  -5.14012  -32.59533  -12.59828
 H  -5.53573  -32.97178  -9.77345
 H  -3.96312  -32.13647  -10.40424
 C  -8.71459  -32.37314  -12.76952
 C  -8.99693  -31.19887  -13.96270
 C  -9.95723  -29.88787  -13.50362
 H  -11.00501  -29.99919  -13.98519
 H  -9.46845  -28.90638  -13.87340
 H  -10.06304  -29.86013  -12.35267
 H  -9.52406  -31.72074  -14.84586
 H  -7.97700  -30.79190  -14.30719
 H  -8.89383  -33.38438  -13.31649
 H  -9.59868  -32.22864  -12.02329
 C  9.61164  35.03139  10.05404
 C  8.92702  33.95533  10.62087
 C  9.67806  33.23776  11.60337
 C  10.96220  33.74979  11.81341
 S  11.09886  35.04517  10.78689
 H  7.87933  33.62054  10.30990
 C  9.09680  31.97350  12.41284
 C  8.27405  30.65226  11.71953
 C  6.58112  30.63487  11.55548
 H  6.11640  30.87835  12.58283
 H  6.28414  31.44997  10.79613
 H  8.54251  29.73331  12.36595
 H  8.70820  30.51315  10.66041
 H  8.36249  32.37391  13.23371
 H  9.97544  31.44813  12.96750
 C  6.06828  29.17165  11.03820
 C  4.40319  28.88145  10.93604
 C  3.72354  28.18350  12.31162
 H  2.82465  27.52427  11.99850
 H  3.36117  29.01951  13.02481
 H  4.51206  27.52912  12.84863
 H  4.22322  28.16461  10.05134
 H  3.87060  29.88283  10.73649
 H  6.49766  28.98925  9.97761
 H  6.49937  28.36338  11.74808
 H  -8.00297  -28.42244  -9.22772
 H  -3.85641  -30.14385  -8.11945
 H  9.25583  35.69904  9.31159
 H  11.69490  33.38613  12.48758
*
