# ================================================================
# Orca input file made by Matty Jones
# ================================================================
! ZINDO/S 
! NOPOP
! NOMOPRINT
* xyz 0   1
 C  6.65476  16.55824  -3.34025
 C  6.98898  15.39465  -4.03470
 C  8.27046  14.85946  -3.69463
 C  8.95157  15.60421  -2.72678
 S  7.94655  16.86791  -2.34804
 H  6.38051  15.12968  -4.96214
 C  8.65289  13.51422  -4.49943
 C  7.99291  13.60440  -6.10218
 C  6.38888  12.96073  -6.03441
 H  6.62161  11.81721  -6.14570
 H  6.03759  13.09773  -4.93640
 H  7.97053  14.68472  -6.47550
 H  8.62595  12.95169  -6.79911
 H  8.23034  12.57524  -3.97428
 H  9.80295  13.41054  -4.60506
 C  5.05148  13.17388  -6.97034
 C  4.76914  14.34814  -8.16353
 C  3.80884  15.65915  -7.70444
 H  2.76106  15.54783  -8.18602
 H  4.29762  16.64064  -8.07423
 H  3.70303  15.68688  -6.55349
 H  4.24201  13.82628  -9.04669
 H  5.78906  14.75512  -8.50801
 H  4.87223  12.16264  -7.51732
 H  4.16739  13.31838  -6.22411
 C  -8.45588  -17.82638  2.63778
 C  -7.33665  -17.36859  3.33466
 C  -7.56072  -16.16501  4.07320
 C  -8.86346  -15.66991  3.95892
 S  -9.65834  -16.73243  2.96410
 H  -6.32348  -17.89364  3.29408
 C  -6.30193  -15.58396  4.90051
 C  -5.75953  -13.98777  4.67462
 C  -6.43404  -12.71364  5.53506
 H  -7.39008  -12.38800  4.98019
 H  -5.67425  -11.83555  5.44083
 H  -4.62868  -13.99308  4.91541
 H  -5.89731  -13.75072  3.55139
 H  -6.51516  -15.71196  6.03897
 H  -5.36015  -16.23791  4.66382
 C  -6.73186  -12.94409  7.11763
 C  -5.58787  -12.32927  8.20139
 C  -4.35011  -13.36048  8.67885
 H  -4.52550  -14.41612  8.24119
 H  -4.33125  -13.41823  9.83566
 H  -3.33852  -12.94440  8.29930
 H  -5.10931  -11.39739  7.71950
 H  -6.16172  -12.00911  9.15144
 H  -6.83026  -14.07201  7.34599
 H  -7.74205  -12.43857  7.37967
 H  5.76310  17.12458  -3.42854
 H  9.90966  15.40317  -2.32027
 H  -8.52304  -18.69109  2.02839
 H  -9.25994  -14.79803  4.41305
*
