# ================================================================
# Orca input file made by Matty Jones
# ================================================================
! ZINDO/S 
! NOPOP
! NOMOPRINT
* xyz 0   1
 C  7.89796  -24.05002  -2.76516
 C  9.04458  -23.30247  -2.49250
 C  9.98506  -23.96471  -1.64327
 C  9.57903  -25.24162  -1.24333
 S  8.09859  -25.48070  -1.95154
 H  9.22705  -22.25275  -2.90713
 C  11.39183  -23.23293  -1.24171
 C  12.16806  -23.14044  0.30416
 C  13.74767  -22.41740  0.38060
 H  14.20412  -22.68976  -0.65182
 H  14.28002  -23.07025  1.18364
 H  12.26830  -24.20282  0.71173
 H  11.48954  -22.51006  0.98317
 H  12.22284  -23.70805  -1.91429
 H  11.30323  -22.10973  -1.54698
 C  14.22710  -20.87726  0.69236
 C  14.85205  -20.44055  2.21888
 C  16.52974  -20.54973  2.41672
 H  16.87951  -21.61825  2.14729
 H  16.79619  -20.32000  3.51974
 H  17.05106  -19.78113  1.72686
 H  14.56208  -19.34043  2.40635
 H  14.35865  -21.11208  3.01169
 H  13.32218  -20.17875  0.51088
 H  15.05801  -20.60308  -0.06813
 C  -11.52909  26.30186  -1.83151
 C  -11.42835  25.17113  -1.01960
 C  -11.27530  25.46308  0.37166
 C  -11.25509  26.83126  0.65978
 S  -11.42526  27.59696  -0.80144
 H  -11.02689  24.19646  -1.48136
 C  -11.19653  24.09874  1.25077
 C  -12.53248  23.11691  0.64899
 C  -13.28544  21.57791  0.79894
 H  -14.42188  21.76267  0.88026
 H  -12.90073  21.09942  1.77363
 H  -12.30039  23.05045  -0.47874
 H  -13.42146  23.84039  0.81926
 H  -11.36641  24.30105  2.37110
 H  -10.20968  23.53072  1.07518
 C  -12.98899  20.58114  -0.46524
 C  -14.04831  19.26676  -0.62639
 C  -13.60586  17.87287  0.19611
 H  -12.53733  17.56149  -0.12023
 H  -14.35007  17.02426  -0.06211
 H  -13.63202  18.07838  1.33471
 H  -14.11662  19.00798  -1.74914
 H  -15.08674  19.59512  -0.24914
 H  -11.91778  20.15685  -0.37386
 H  -13.06595  21.17882  -1.45375
 H  7.07285  -23.76353  -3.36576
 H  10.10694  -25.91565  -0.61836
 H  -11.64711  26.32730  -2.88461
 H  -11.15249  27.28417  1.61264
*
