# ================================================================
# Orca input file made by Matty Jones
# ================================================================
! ZINDO/S 
! NOPOP
! NOMOPRINT
* xyz 0   1
 C  19.25082  -1.18992  27.80951
 C  19.58504  -2.35351  27.11507
 C  20.86652  -2.88869  27.45513
 C  21.54763  -2.14394  28.42299
 S  20.54261  -0.88025  28.80173
 H  18.97657  -2.61848  26.18762
 C  21.24895  -4.23394  26.65034
 C  20.58897  -4.14375  25.04759
 C  18.98494  -4.78743  25.11535
 H  19.21767  -5.93094  25.00406
 H  18.63365  -4.65043  26.21336
 H  20.56659  -3.06343  24.67427
 H  21.22201  -4.79647  24.35066
 H  20.82640  -5.17292  27.17549
 H  22.39901  -4.33761  26.54470
 C  17.64754  -4.57428  24.17942
 C  17.36520  -3.40001  22.98624
 C  16.40490  -2.08900  23.44532
 H  15.35712  -2.20032  22.96375
 H  16.89368  -1.10752  23.07554
 H  16.29909  -2.06127  24.59628
 H  16.83807  -3.92187  22.10308
 H  18.38512  -2.99304  22.64175
 H  17.46829  -5.58551  23.63245
 H  16.76345  -4.42978  24.92566
 C  -21.35038  -0.91140  -26.92771
 C  -20.60161  0.06256  -26.26542
 C  -21.38762  1.00206  -25.52799
 C  -22.76400  0.76876  -25.60839
 S  -22.93363  -0.56882  -26.57407
 H  -19.45924  0.06551  -26.23644
 C  -20.70977  2.20500  -24.68371
 C  -19.40479  2.99306  -25.39995
 C  -18.62740  4.26629  -24.58654
 H  -18.50371  3.98301  -23.47619
 H  -19.27359  5.21651  -24.67266
 H  -18.59927  2.18723  -25.58438
 H  -19.76742  3.41279  -26.41105
 H  -21.50127  3.04258  -24.49566
 H  -20.34020  1.81033  -23.65258
 C  -17.17529  4.48779  -25.29628
 C  -16.23510  5.82166  -24.87652
 C  -16.48358  7.10409  -25.93733
 H  -15.73930  7.95444  -25.69063
 H  -17.56895  7.48813  -25.82741
 H  -16.30898  6.73944  -27.02239
 H  -16.50672  6.15801  -23.81043
 H  -15.12447  5.51911  -24.92033
 H  -17.33256  4.53457  -26.44355
 H  -16.52465  3.55388  -25.06220
 H  18.35916  -0.62357  27.72122
 H  22.50572  -2.34499  28.82949
 H  -20.98412  -1.70317  -27.52984
 H  -23.53709  1.32945  -25.14843
*
