# ================================================================
# Orca input file made by Matty Jones
# ================================================================
! ZINDO/S 
! NOPOP
! NOMOPRINT
* xyz 0   1
 C  -18.05448  -6.87151  -10.19501
 C  -16.83191  -6.21795  -10.03348
 C  -15.95251  -6.84732  -9.09817
 C  -16.48335  -8.00369  -8.51823
 S  -17.99161  -8.18403  -9.18384
 H  -16.64536  -5.06019  -9.92840
 C  -14.47645  -6.32912  -8.68942
 C  -14.27104  -4.73804  -8.12910
 C  -12.65842  -4.27476  -7.81858
 H  -12.66112  -3.12152  -7.98816
 H  -12.04396  -4.74095  -8.67807
 H  -14.69887  -4.02260  -8.92000
 H  -14.85728  -4.63642  -7.14419
 H  -14.04106  -7.01089  -7.84733
 H  -13.77471  -6.43033  -9.61870
 C  -11.89622  -4.51749  -6.39523
 C  -10.24249  -4.10680  -6.42645
 C  -9.82907  -2.51622  -6.06314
 H  -8.67472  -2.42570  -6.02589
 H  -10.27447  -2.22311  -5.03736
 H  -10.24376  -1.81737  -6.88667
 H  -9.70382  -4.79387  -5.67344
 H  -9.83719  -4.30541  -7.48604
 H  -11.97090  -5.63163  -6.10035
 H  -12.39417  -3.87876  -5.57195
 C  18.57402  4.86155  7.63823
 C  17.48869  4.16575  8.17287
 C  16.44719  5.00603  8.67633
 C  16.71145  6.37223  8.53855
 S  18.19889  6.46730  7.81128
 H  16.98686  3.13931  7.88527
 C  15.04108  4.55681  9.33904
 C  13.85467  4.15546  8.18600
 C  12.98417  5.52323  7.63386
 H  13.56306  6.45544  7.97811
 H  13.07381  5.47823  6.47541
 H  14.36003  3.65385  7.28692
 H  13.10466  3.43643  8.67704
 H  14.60861  5.35596  10.05353
 H  15.20995  3.59129  9.97515
 C  11.40797  5.72789  8.00756
 C  10.44990  5.30737  6.66793
 C  8.78877  5.20798  6.89680
 H  8.55599  4.28336  7.55377
 H  8.27293  5.08677  5.86674
 H  8.40310  6.16566  7.41600
 H  10.82189  4.29195  6.27146
 H  10.63061  6.12037  5.86633
 H  11.10637  5.05782  8.89568
 H  11.19392  6.83079  8.27236
 H  -18.85450  -6.58846  -10.83019
 H  -16.01897  -8.63321  -7.80293
 H  19.45282  4.45018  7.21152
 H  16.09098  7.17834  8.83654
*
