# ================================================================
# Orca input file made by Matty Jones
# ================================================================
! ZINDO/S 
! NOPOP
! NOMOPRINT
* xyz 0   1
 C  -23.90484  -3.69697  -16.55649
 C  -22.75822  -2.94943  -16.28383
 C  -21.81774  -3.61167  -15.43460
 C  -22.22377  -4.88858  -15.03466
 S  -23.70422  -5.12766  -15.74287
 H  -22.57575  -1.89971  -16.69846
 C  -20.41098  -2.87988  -15.03304
 C  -19.63474  -2.78739  -13.48717
 C  -18.05513  -2.06435  -13.41073
 H  -17.59868  -2.33671  -14.44314
 H  -17.52279  -2.71721  -12.60769
 H  -19.53450  -3.84977  -13.07959
 H  -20.31327  -2.15702  -12.80815
 H  -19.57996  -3.35500  -15.70562
 H  -20.49958  -1.75668  -15.33830
 C  -17.57570  -0.52421  -13.09896
 C  -16.95075  -0.08750  -11.57245
 C  -15.27306  -0.19669  -11.37461
 H  -14.92329  -1.26520  -11.64404
 H  -15.00661  0.03305  -10.27159
 H  -14.75174  0.57192  -12.06446
 H  -17.24073  1.01262  -11.38497
 H  -17.44416  -0.75904  -10.77964
 H  -18.48062  0.17430  -13.28045
 H  -16.74479  -0.25003  -13.85946
 C  17.00874  -2.10328  12.34006
 C  17.75751  -1.12933  13.00235
 C  16.97149  -0.18983  13.73978
 C  15.59511  -0.42312  13.65938
 S  15.42549  -1.76071  12.69370
 H  18.89987  -1.12638  13.03133
 C  17.64934  1.01311  14.58406
 C  18.95433  1.80117  13.86782
 C  19.73171  3.07440  14.68123
 H  19.85541  2.79112  15.79158
 H  19.08553  4.02462  14.59511
 H  19.75985  0.99535  13.68339
 H  18.59170  2.22090  12.85672
 H  16.85784  1.85070  14.77211
 H  18.01892  0.61844  15.61519
 C  21.18382  3.29591  13.97149
 C  22.12402  4.62977  14.39125
 C  21.87553  5.91220  13.33044
 H  22.61982  6.76255  13.57714
 H  20.79017  6.29625  13.44036
 H  22.05014  5.54755  12.24538
 H  21.85239  4.96612  15.45734
 H  23.23465  4.32722  14.34744
 H  21.02655  3.34268  12.82422
 H  21.83446  2.36199  14.20558
 H  -24.72995  -3.41049  -17.15708
 H  -21.69586  -5.56261  -14.40968
 H  17.37500  -2.89505  11.73793
 H  14.82202  0.13756  14.11934
*
