# ================================================================
# Orca input file made by Matty Jones
# ================================================================
! ZINDO/S 
! NOPOP
! NOMOPRINT
* xyz 0   1
 C  -15.68082  -9.69611  -5.02246
 C  -14.48354  -9.33125  -5.63997
 C  -13.31213  -9.77267  -4.94918
 C  -13.58580  -10.48972  -3.78031
 S  -15.23947  -10.53912  -3.66466
 H  -14.21902  -9.35284  -6.79730
 C  -11.85672  -9.39884  -5.55990
 C  -11.48588  -7.78498  -6.06496
 C  -11.84273  -7.17299  -7.62784
 H  -11.40444  -7.92017  -8.39071
 H  -12.99260  -7.15761  -7.72807
 H  -12.03714  -7.09550  -5.32428
 H  -10.34775  -7.66319  -5.92905
 H  -11.66456  -10.05495  -6.49549
 H  -11.03564  -9.65284  -4.76946
 C  -11.25668  -5.67649  -7.94355
 C  -11.82891  -4.81372  -9.29847
 C  -11.08739  -4.87326  -10.81241
 H  -9.93982  -4.91370  -10.68156
 H  -11.37496  -3.91948  -11.40581
 H  -11.45511  -5.80705  -11.38613
 H  -12.93080  -5.11485  -9.44596
 H  -11.75826  -3.71421  -8.98192
 H  -11.45671  -5.00395  -7.02338
 H  -10.11018  -5.76203  -8.08868
 C  17.40931  7.27440  6.86719
 C  16.32398  6.57861  7.40183
 C  15.28248  7.41889  7.90530
 C  15.54674  8.78509  7.76751
 S  17.03418  8.88016  7.04024
 H  15.82215  5.55217  7.11423
 C  13.87637  6.96967  8.56800
 C  12.68996  6.56831  7.41497
 C  11.81946  7.93608  6.86283
 H  12.39835  8.86829  7.20708
 H  11.90910  7.89109  5.70438
 H  13.19532  6.06671  6.51588
 H  11.93995  5.84928  7.90600
 H  13.44390  7.76881  9.28249
 H  14.04524  6.00414  9.20411
 C  10.24326  8.14075  7.23653
 C  9.28519  7.72023  5.89689
 C  7.62406  7.62083  6.12577
 H  7.39128  6.69621  6.78274
 H  7.10822  7.49962  5.09571
 H  7.23839  8.57852  6.64497
 H  9.65718  6.70481  5.50043
 H  9.46590  8.53323  5.09529
 H  9.94166  7.47068  8.12464
 H  10.02921  9.24364  7.50133
 H  -16.66480  -9.47987  -5.35203
 H  -12.88337  -10.91307  -3.10877
 H  18.28811  6.86303  6.44048
 H  14.92627  9.59119  8.06551
*
