# ================================================================
# Orca input file made by Matty Jones
# ================================================================
! ZINDO/S 
! NOPOP
! NOMOPRINT
* xyz 0   1
 C  -11.72202  -13.40352  -6.09983
 C  -10.56192  -12.64444  -5.93903
 C  -9.70052  -13.10828  -4.89639
 C  -10.18287  -14.23934  -4.23053
 S  -11.62940  -14.60088  -4.95666
 H  -10.37912  -11.67778  -6.51283
 C  -8.34832  -12.26191  -4.66667
 C  -7.52855  -11.91303  -6.12516
 C  -6.25356  -10.81164  -5.96940
 H  -6.57875  -10.10924  -5.09936
 H  -6.31183  -10.18269  -6.95053
 H  -7.09318  -12.90665  -6.51503
 H  -8.26721  -11.48733  -6.89429
 H  -8.58331  -11.25922  -4.14527
 H  -7.60441  -12.86291  -3.99932
 C  -4.68384  -11.15938  -5.73805
 C  -3.75821  -11.12413  -7.15502
 C  -3.20814  -9.57548  -7.54040
 H  -4.04227  -8.80582  -7.31487
 H  -2.94017  -9.53718  -8.66542
 H  -2.27139  -9.33166  -6.90734
 H  -2.83911  -11.80094  -6.99892
 H  -4.39269  -11.52234  -8.02717
 H  -4.57955  -12.21249  -5.27452
 H  -4.22678  -10.38566  -5.00846
 C  11.25678  11.81336  4.75425
 C  9.92527  12.08716  5.07051
 C  9.70433  12.39688  6.44875
 C  10.86725  12.36750  7.22469
 S  12.09042  11.96551  6.17938
 H  9.08073  12.10067  4.30200
 C  8.32933  12.77560  7.25198
 C  6.78392  12.04226  7.58915
 C  5.17982  11.85610  7.00129
 H  4.48999  12.06347  7.91353
 H  5.02722  12.71530  6.24515
 H  7.11094  10.93716  7.73016
 H  6.57014  12.49491  8.64239
 H  7.95744  13.77021  6.74634
 H  8.66221  13.07219  8.33672
 C  4.72098  10.43581  6.35222
 C  4.39726  10.34645  4.70138
 C  4.32759  11.82275  3.90661
 H  5.37058  12.32193  3.92490
 H  3.55355  12.50563  4.43150
 H  3.99986  11.64692  2.81013
 H  5.22551  9.71281  4.20897
 H  3.38080  9.81745  4.56406
 H  5.54236  9.64631  6.57033
 H  3.75061  10.09144  6.89082
 H  -12.49857  -13.24746  -6.80426
 H  -9.72071  -14.75723  -3.42940
 H  11.65180  11.56129  3.80345
 H  10.94973  12.56153  8.26351
*
