# ================================================================
# Orca input file made by Matty Jones
# ================================================================
! ZINDO/S 
! NOPOP
! NOMOPRINT
* xyz 0   1
 C  16.38725  -1.47051  2.79198
 C  17.58453  -1.10565  2.17447
 C  18.75594  -1.54708  2.86526
 C  18.48227  -2.26412  4.03413
 S  16.82861  -2.31352  4.14979
 H  17.84905  -1.12724  1.01714
 C  20.21135  -1.17324  2.25454
 C  20.58219  0.44061  1.74948
 C  20.22534  1.05261  0.18661
 H  20.66363  0.30543  -0.57626
 H  19.07548  1.06799  0.08637
 H  20.03093  1.13010  2.49016
 H  21.72032  0.56241  1.88539
 H  20.40351  -1.82935  1.31896
 H  21.03244  -1.42724  3.04498
 C  20.81139  2.54911  -0.12911
 C  20.23916  3.41187  -1.48403
 C  20.98068  3.35234  -2.99797
 H  22.12825  3.31190  -2.86712
 H  20.69311  4.30612  -3.59137
 H  20.61296  2.41855  -3.57168
 H  19.13728  3.11075  -1.63151
 H  20.30982  4.51138  -1.16747
 H  20.61137  3.22165  0.79106
 H  21.95789  2.46357  -0.27423
 C  -22.02025  -5.14170  -0.78768
 C  -21.14826  -4.06234  -0.63757
 C  -21.70594  -2.95611  0.07623
 C  -23.02494  -3.16300  0.49186
 S  -23.42611  -4.68238  -0.03823
 H  -20.05509  -4.06144  -0.96377
 C  -20.62062  -1.74798  0.20890
 C  -20.73132  -0.11594  -0.25900
 C  -19.16927  0.54384  0.01610
 H  -19.11030  0.74129  1.15539
 H  -18.40340  -0.28440  -0.24776
 H  -20.98988  -0.04251  -1.37206
 H  -21.50029  0.43406  0.38583
 H  -20.37049  -1.66511  1.35487
 H  -19.62922  -2.09263  -0.31146
 C  -18.70663  1.89926  -0.76581
 C  -17.91634  1.65331  -2.25362
 C  -16.23460  1.52229  -2.20550
 H  -15.87378  1.52205  -1.10697
 H  -15.76472  2.41787  -2.76892
 H  -15.91389  0.53529  -2.71894
 H  -18.33415  0.68552  -2.71831
 H  -18.17633  2.54732  -2.93365
 H  -19.63530  2.55302  -0.97865
 H  -17.97698  2.49462  -0.09398
 H  15.40327  -1.25427  2.46241
 H  19.18470  -2.68747  4.70568
 H  -21.82493  -6.06121  -1.27752
 H  -23.63969  -2.48969  1.03254
*
