# ================================================================
# Orca input file made by Matty Jones
# ================================================================
! ZINDO/S 
! NOPOP
! NOMOPRINT
* xyz 0   1
 C  18.73654  2.42229  -4.52351
 C  19.95910  3.07585  -4.36198
 C  20.83851  2.44648  -3.42667
 C  20.30767  1.29011  -2.84673
 S  18.79940  1.10977  -3.51234
 H  20.14566  4.23361  -4.25690
 C  22.31457  2.96468  -3.01792
 C  22.51998  4.55576  -2.45760
 C  24.13260  5.01904  -2.14708
 H  24.12990  6.17228  -2.31666
 H  24.74706  4.55285  -3.00657
 H  22.09215  5.27120  -3.24851
 H  21.93374  4.65738  -1.47269
 H  22.74996  2.28291  -2.17583
 H  23.01631  2.86347  -3.94720
 C  24.89480  4.77631  -0.72373
 C  26.54853  5.18700  -0.75495
 C  26.96195  6.77758  -0.39164
 H  28.11630  6.86810  -0.35439
 H  26.51654  7.07069  0.63414
 H  26.54726  7.47643  -1.21517
 H  27.08720  4.49993  -0.00195
 H  26.95383  4.98839  -1.81454
 H  24.82012  3.66217  -0.42885
 H  24.39685  5.41504  0.09955
 C  -18.25163  -3.70524  0.09281
 C  -19.42750  -4.29689  0.55669
 C  -20.23083  -3.43912  1.37103
 C  -19.68656  -2.16371  1.55108
 S  -18.26009  -2.16444  0.70515
 H  -19.73312  -5.37097  0.32143
 C  -21.62058  -3.99723  1.98981
 C  -23.13536  -3.21460  1.88434
 C  -24.35834  -3.99961  2.77535
 H  -23.79623  -4.62253  3.57818
 H  -24.92468  -3.14680  3.32485
 H  -23.44327  -3.31546  0.76876
 H  -23.16987  -2.11850  2.15384
 H  -21.45749  -4.14674  3.13811
 H  -21.82396  -5.05663  1.53718
 C  -25.47980  -4.96894  2.10293
 C  -26.38487  -5.77613  3.29281
 C  -27.65843  -4.91494  3.97718
 H  -27.24239  -4.21102  4.79697
 H  -28.40872  -5.65787  4.45221
 H  -28.19132  -4.29148  3.16225
 H  -25.66712  -6.08781  4.13850
 H  -26.82871  -6.72105  2.80149
 H  -26.21096  -4.34433  1.46281
 H  -24.97438  -5.76170  1.43449
 H  17.93652  2.70534  -5.15869
 H  20.77205  0.66059  -2.13143
 H  -17.50963  -4.14765  -0.52144
 H  -20.09929  -1.36388  2.11102
*
