# ================================================================
# Orca input file made by Matty Jones
# ================================================================
! ZINDO/S 
! NOPOP
! NOMOPRINT
* xyz 0   1
 C  -4.08785  0.88932  -0.98668
 C  -3.75363  -0.27427  -1.68113
 C  -2.47215  -0.80946  -1.34107
 C  -1.79104  -0.06471  -0.37321
 S  -2.79606  1.19899  0.00553
 H  -4.36210  -0.53924  -2.60858
 C  -2.08972  -2.15470  -2.14586
 C  -2.74970  -2.06452  -3.74861
 C  -4.35373  -2.70819  -3.68084
 H  -4.12100  -3.85171  -3.79213
 H  -4.70502  -2.57119  -2.58283
 H  -2.77208  -0.98420  -4.12193
 H  -2.11666  -2.71723  -4.44554
 H  -2.51227  -3.09368  -1.62071
 H  -0.93966  -2.25838  -2.25149
 C  -5.69113  -2.49504  -4.61677
 C  -5.97347  -1.32078  -5.80996
 C  -6.93377  -0.00977  -5.35087
 H  -7.98155  -0.12109  -5.83245
 H  -6.44499  0.97172  -5.72066
 H  -7.03958  0.01796  -4.19992
 H  -6.50060  -1.84264  -6.69312
 H  -4.95355  -0.91380  -6.15444
 H  -5.87038  -3.50628  -5.16375
 H  -6.57522  -2.35054  -3.87054
 C  -0.41300  -0.42585  0.56917
 C  0.73362  0.32170  0.84183
 C  1.67410  -0.34054  1.69106
 C  1.26807  -1.61746  2.09100
 S  -0.21237  -1.85654  1.38280
 H  0.91609  1.37142  0.42720
 C  3.08087  0.39124  2.09262
 C  3.85710  0.48373  3.63849
 C  5.43671  1.20677  3.71493
 H  5.89316  0.93441  2.68252
 H  5.96906  0.55392  4.51798
 H  3.95734  -0.57865  4.04607
 H  3.17858  1.11411  4.31751
 H  3.91188  -0.08388  1.42004
 H  2.99227  1.51444  1.78736
 C  5.91614  2.74691  4.02670
 C  6.54109  3.18362  5.55322
 C  8.21878  3.07444  5.75105
 H  8.56855  2.00592  5.48163
 H  8.48523  3.30417  6.85408
 H  8.74010  3.84304  5.06120
 H  6.25112  4.28374  5.74069
 H  6.04769  2.51208  6.34602
 H  5.01122  3.44542  3.84521
 H  6.74705  3.02109  3.26620
 H  -4.97951  1.45566  -1.07497
 H  1.79598  -2.29149  2.71598
*
