# ================================================================
# Orca input file made by Matty Jones
# ================================================================
! ZINDO/S 
! NOPOP
! NOMOPRINT
* xyz 0   1
 C  -21.21644  0.57480  -5.74958
 C  -21.81419  -0.63283  -6.11319
 C  -21.31244  -1.76914  -5.40517
 C  -20.31343  -1.45720  -4.47780
 S  -20.10644  0.18502  -4.58122
 H  -22.64280  -0.73932  -6.89131
 C  -21.91313  -3.24901  -5.69243
 C  -23.60241  -3.54255  -5.50882
 C  -25.02629  -3.43093  -6.46800
 H  -25.71840  -4.25469  -6.02207
 H  -25.47323  -2.40207  -6.15832
 H  -23.61889  -4.65904  -5.18953
 H  -23.86959  -2.89671  -4.58258
 H  -21.37666  -4.06495  -5.06759
 H  -21.71039  -3.50135  -6.81902
 C  -25.18227  -3.52518  -8.08882
 C  -25.67743  -5.02703  -8.71219
 C  -27.34760  -5.24594  -8.84619
 H  -27.57144  -6.37216  -8.99335
 H  -27.74103  -4.65083  -9.75662
 H  -27.86365  -4.87034  -7.88142
 H  -25.22902  -5.13028  -9.76864
 H  -25.26086  -5.85566  -8.03077
 H  -25.96736  -2.74781  -8.43605
 H  -24.16806  -3.27017  -8.58136
 C  22.02196  -0.69776  8.48711
 C  22.07005  0.51009  7.78949
 C  21.64124  1.64166  8.55104
 C  21.25260  1.32573  9.85659
 S  21.45710  -0.31398  9.99799
 H  22.14505  0.51983  6.64821
 C  21.69692  3.05574  7.76511
 C  23.17819  3.11917  6.87565
 C  23.71274  4.34693  5.83546
 H  23.96354  5.27774  6.47012
 H  22.84965  4.59865  5.11129
 H  24.00185  3.01333  7.67911
 H  23.18855  2.19112  6.19407
 H  20.82471  3.14691  7.00882
 H  21.67382  3.95031  8.49734
 C  25.02736  3.87491  4.98315
 C  26.55494  4.31297  5.55408
 C  27.08915  5.75111  4.86053
 H  27.39000  5.55372  3.75992
 H  28.00375  6.14631  5.44808
 H  26.23619  6.53154  4.89509
 H  26.50439  4.44555  6.69570
 H  27.30411  3.47839  5.29154
 H  24.93630  4.29368  3.90669
 H  25.03251  2.71694  4.91293
 H  -21.42756  1.53806  -6.13838
 H  -19.79664  -2.12959  -3.84186
 H  22.29004  -1.65799  8.12698
 H  20.90093  1.99428  10.60020
*
