# ================================================================
# Orca input file made by Matty Jones
# ================================================================
! ZINDO/S 
! NOPOP
! NOMOPRINT
* xyz 0   1
 C  20.64383  -6.78370  -0.92165
 C  21.84110  -6.41883  -1.53916
 C  23.01252  -6.86026  -0.84837
 C  22.73885  -7.57731  0.32050
 S  21.08518  -7.62671  0.43615
 H  22.10563  -6.44043  -2.69649
 C  24.46793  -6.48643  -1.45909
 C  24.83877  -4.87257  -1.96415
 C  24.48191  -4.26058  -3.52703
 H  24.92021  -5.00776  -4.28990
 H  23.33205  -4.24520  -3.62726
 H  24.28750  -4.18309  -1.22347
 H  25.97690  -4.75078  -1.82824
 H  24.66009  -7.14254  -2.39468
 H  25.28901  -6.74043  -0.66865
 C  25.06797  -2.76408  -3.84274
 C  24.49574  -1.90131  -5.19766
 C  25.23726  -1.96085  -6.71160
 H  26.38483  -2.00129  -6.58075
 H  24.94969  -1.00706  -7.30500
 H  24.86953  -2.89464  -7.28532
 H  23.39385  -2.20243  -5.34515
 H  24.56639  -0.80180  -4.88110
 H  24.86794  -2.09154  -2.92257
 H  26.21447  -2.84962  -3.98787
 C  -25.74759  0.83233  4.73704
 C  -25.69951  2.04018  4.03942
 C  -26.12831  3.17175  4.80097
 C  -26.51695  2.85582  6.10652
 S  -26.31245  1.21611  6.24792
 H  -25.62451  2.04993  2.89814
 C  -26.07264  4.58583  4.01504
 C  -24.59137  4.64926  3.12558
 C  -24.05681  5.87702  2.08539
 H  -23.80602  6.80783  2.72005
 H  -24.91990  6.12875  1.36122
 H  -23.76770  4.54342  3.92905
 H  -24.58100  3.72121  2.44400
 H  -26.94484  4.67701  3.25875
 H  -26.09573  5.48040  4.74728
 C  -22.74219  5.40500  1.23308
 C  -21.21462  5.84306  1.80401
 C  -20.68040  7.28120  1.11046
 H  -20.37956  7.08381  0.00985
 H  -19.76580  7.67640  1.69801
 H  -21.53336  8.06163  1.14502
 H  -21.26516  5.97564  2.94563
 H  -20.46544  5.00848  1.54147
 H  -22.83325  5.82378  0.15662
 H  -22.73705  4.24703  1.16286
 H  19.65985  -6.56746  -1.25122
 H  23.44128  -8.00066  0.99205
 H  -25.47951  -0.12790  4.37691
 H  -26.86863  3.52437  6.85013
*
