# ================================================================
# Orca input file made by Matty Jones
# ================================================================
! ZINDO/S 
! NOPOP
! NOMOPRINT
* xyz 0   1
 C  -16.28406  -8.42244  -9.73454
 C  -16.88629  -9.67861  -9.81970
 C  -16.34947  -10.64607  -8.91409
 C  -15.31815  -10.15133  -8.10977
 S  -15.12743  -8.56524  -8.55517
 H  -17.72784  -9.93780  -10.54711
 C  -16.96379  -12.14846  -8.92168
 C  -17.31632  -13.01483  -7.49481
 C  -17.97050  -14.58023  -7.67093
 H  -17.51582  -15.00265  -8.64950
 H  -17.54492  -15.19761  -6.78519
 H  -16.33406  -13.17042  -6.92054
 H  -18.04977  -12.38789  -6.87124
 H  -16.22116  -12.83949  -9.50773
 H  -17.97032  -12.13927  -9.51289
 C  -19.58407  -14.83068  -7.71399
 C  -20.33591  -14.96776  -9.22509
 C  -21.00101  -13.55776  -9.85109
 H  -21.95402  -13.82489  -10.45297
 H  -20.23375  -13.04557  -10.54895
 H  -21.28102  -12.84149  -8.98670
 H  -19.55030  -15.35399  -9.97560
 H  -21.18107  -15.74731  -9.12634
 H  -19.81990  -15.81242  -7.14430
 H  -20.10617  -13.95859  -7.15851
 C  15.85930  8.40485  7.27749
 C  16.60807  9.37880  7.93978
 C  15.82205  10.31830  8.67721
 C  14.44567  10.08501  8.59681
 S  14.27605  8.74743  7.63113
 H  17.75044  9.38175  7.96876
 C  16.49991  11.52124  9.52150
 C  17.80489  12.30930  8.80525
 C  18.58227  13.58253  9.61867
 H  18.70597  13.29925  10.72901
 H  17.93609  14.53275  9.53254
 H  18.61041  11.50348  8.62083
 H  17.44226  12.72904  7.79416
 H  15.70841  12.35883  9.70955
 H  16.86948  11.12658  10.55263
 C  20.03439  13.80404  8.90893
 C  20.97458  15.13791  9.32869
 C  20.72609  16.42033  8.26787
 H  21.47038  17.27068  8.51458
 H  19.64073  16.80438  8.37779
 H  20.90070  16.05569  7.18282
 H  20.70296  15.47425  10.39478
 H  22.08521  14.83535  9.28487
 H  19.87712  13.85082  7.76165
 H  20.68502  12.87012  9.14301
 H  -16.51699  -7.55914  -10.30380
 H  -14.77250  -10.67948  -7.37023
 H  16.22556  7.61308  6.67537
 H  13.67259  10.64569  9.05678
*
