# ================================================================
# Orca input file made by Matty Jones
# ================================================================
! ZINDO/S 
! NOPOP
! NOMOPRINT
* xyz 0   1
 C  17.12180  5.88799  -2.03595
 C  16.52404  4.68036  -2.39956
 C  17.02579  3.54405  -1.69153
 C  18.02480  3.85599  -0.76417
 S  18.23180  5.49820  -0.86759
 H  15.69544  4.57387  -3.17768
 C  16.42511  2.06418  -1.97880
 C  14.73583  1.77064  -1.79519
 C  13.31195  1.88226  -2.75436
 H  12.61984  1.05850  -2.30844
 H  12.86500  2.91112  -2.44469
 H  14.71934  0.65415  -1.47590
 H  14.46865  2.41648  -0.86894
 H  16.96158  1.24824  -1.35395
 H  16.62785  1.81184  -3.10539
 C  13.15596  1.78801  -4.37519
 C  12.66081  0.28616  -4.99856
 C  10.99064  0.06725  -5.13256
 H  10.76679  -1.05897  -5.27971
 H  10.59721  0.66236  -6.04298
 H  10.47458  0.44285  -4.16779
 H  13.10922  0.18291  -6.05501
 H  13.07737  -0.54247  -4.31713
 H  12.37088  2.56538  -4.72242
 H  14.17018  2.04302  -4.86773
 C  -16.84551  -6.67179  2.96239
 C  -15.97352  -5.59243  3.11250
 C  -16.53120  -4.48621  3.82630
 C  -17.85020  -4.69310  4.24193
 S  -18.25137  -6.21247  3.71184
 H  -14.88036  -5.59153  2.78630
 C  -15.44588  -3.27808  3.95897
 C  -15.55658  -1.64603  3.49107
 C  -13.99453  -0.98626  3.76617
 H  -13.93556  -0.78881  4.90546
 H  -13.22866  -1.81449  3.50231
 H  -15.81514  -1.57260  2.37801
 H  -16.32555  -1.09603  4.13590
 H  -15.19575  -3.19521  5.10494
 H  -14.45448  -3.62272  3.43861
 C  -13.53189  0.36917  2.98426
 C  -12.74160  0.12322  1.49645
 C  -11.05986  -0.00780  1.54456
 H  -10.69904  -0.00804  2.64310
 H  -10.58998  0.88778  0.98115
 H  -10.73915  -0.99480  1.03113
 H  -13.15941  -0.84457  1.03175
 H  -13.00159  1.01723  0.81642
 H  -14.46056  1.02293  2.77142
 H  -12.80224  0.96453  3.65609
 H  16.91068  6.85125  -2.42475
 H  18.54160  3.18360  -0.12823
 H  -16.65019  -7.59130  2.47255
 H  -18.46495  -4.01978  4.78261
*
