# ================================================================
# Orca input file made by Matty Jones
# ================================================================
! ZINDO/S 
! NOPOP
! NOMOPRINT
* xyz 0   1
 C  -19.43592  -2.60290  24.87923
 C  -18.28930  -1.85535  25.15189
 C  -17.34881  -2.51759  26.00112
 C  -17.75485  -3.79451  26.40106
 S  -19.23529  -4.03359  25.69285
 H  -18.10683  -0.80564  24.73726
 C  -15.94205  -1.78581  26.40268
 C  -15.16582  -1.69332  27.94855
 C  -13.58621  -0.97028  28.02498
 H  -13.12976  -1.24264  26.99257
 H  -13.05386  -1.62314  28.82803
 H  -15.06558  -2.75570  28.35612
 H  -15.84434  -1.06294  28.62756
 H  -15.11104  -2.26093  25.73010
 H  -16.03065  -0.66261  26.09741
 C  -13.10678  0.56986  28.33675
 C  -12.48183  1.00657  29.86327
 C  -10.80414  0.89738  30.06110
 H  -10.45437  -0.17113  29.79168
 H  -10.53769  1.12712  31.16413
 H  -10.28281  1.66599  29.37125
 H  -12.77180  2.10669  30.05074
 H  -12.97523  0.33503  30.65607
 H  -14.01170  1.26837  28.15527
 H  -12.27587  0.84404  27.57626
 C  19.04878  1.06793  -28.87785
 C  17.71727  1.34173  -28.56159
 C  17.49634  1.65145  -27.18336
 C  18.65925  1.62207  -26.40741
 S  19.88242  1.22008  -27.45272
 H  16.87273  1.35524  -29.33010
 C  16.12134  2.03017  -26.38012
 C  14.57592  1.29682  -26.04295
 C  12.97183  1.11067  -26.63082
 H  12.28199  1.31804  -25.71857
 H  12.81922  1.96987  -27.38695
 H  14.90295  0.19173  -25.90195
 H  14.36214  1.74948  -24.98971
 H  15.74944  3.02478  -26.88576
 H  16.45421  2.32676  -25.29538
 C  12.51299  -0.30962  -27.27988
 C  12.18926  -0.39898  -28.93073
 C  12.11959  1.07732  -29.72549
 H  13.16259  1.57650  -29.70720
 H  11.34555  1.76020  -29.20060
 H  11.79186  0.90149  -30.82198
 H  13.01751  -1.03263  -29.42313
 H  11.17280  -0.92798  -29.06804
 H  13.33437  -1.09912  -27.06177
 H  11.54261  -0.65399  -26.74128
 H  -20.26103  -2.31642  24.27863
 H  -17.22694  -4.46854  27.02603
 H  19.44380  0.81586  -29.82866
 H  18.74173  1.81610  -25.36859
*
