# ================================================================
# Orca input file made by Matty Jones
# ================================================================
! ZINDO/S 
! NOPOP
! NOMOPRINT
* xyz 0   1
 C  10.42906  15.31527  -0.64819
 C  11.33174  16.06771  0.10474
 C  12.19199  15.28578  0.93709
 C  11.96746  13.90895  0.84093
 S  10.73373  13.73398  -0.25349
 H  11.92841  17.03468  -0.21225
 C  13.39956  15.65972  1.97182
 C  14.83491  16.50002  1.58135
 C  15.08824  18.14663  1.78883
 H  15.63090  18.55137  0.85152
 H  14.06587  18.67124  1.89101
 H  15.66862  15.95821  2.17635
 H  15.00799  16.28964  0.45560
 H  12.93088  16.32299  2.81121
 H  13.78575  14.69371  2.48889
 C  16.00504  18.42799  3.11339
 C  15.17338  18.26264  4.57064
 C  14.28023  19.62319  4.97972
 H  14.66619  20.53964  4.38777
 H  14.37880  19.82434  6.11472
 H  13.16854  19.43373  4.71462
 H  14.46911  17.35478  4.49666
 H  15.94873  18.07700  5.40431
 H  16.89610  17.68962  3.13428
 H  16.42876  19.50363  3.06490
 C  -12.82044  -13.16360  -4.09049
 C  -12.71970  -14.29432  -3.27858
 C  -12.56665  -14.00237  -1.88732
 C  -12.54644  -12.63420  -1.59920
 S  -12.71661  -11.86850  -3.06042
 H  -12.31824  -15.26900  -3.74035
 C  -12.48788  -15.36672  -1.00822
 C  -13.82383  -16.34854  -1.61000
 C  -14.57679  -17.88755  -1.46004
 H  -15.71323  -17.70278  -1.37872
 H  -14.19209  -18.36603  -0.48535
 H  -13.59174  -16.41501  -2.73772
 H  -14.71281  -15.62507  -1.43973
 H  -12.65776  -15.16440  0.11212
 H  -11.50103  -15.93473  -1.18380
 C  -14.28034  -18.88432  -2.72423
 C  -15.33966  -20.19869  -2.88537
 C  -14.89721  -21.59258  -2.06287
 H  -13.82868  -21.90396  -2.37922
 H  -15.64142  -22.44119  -2.32109
 H  -14.92337  -21.38707  -0.92427
 H  -15.40797  -20.45748  -4.00812
 H  -16.37809  -19.87034  -2.50812
 H  -13.20913  -19.30860  -2.63284
 H  -14.35730  -18.28664  -3.71273
 H  9.70201  15.67820  -1.32884
 H  12.47874  13.13841  1.35905
 H  -12.93846  -13.13815  -5.14359
 H  -12.44384  -12.18128  -0.64634
*
