# ================================================================
# Orca input file made by Matty Jones
# ================================================================
! ZINDO/S 
! NOPOP
! NOMOPRINT
* xyz 0   1
 C  -14.80775  -1.45587  27.77016
 C  -15.64163  -2.56818  27.89387
 C  -15.10170  -3.61548  28.70375
 C  -13.83508  -3.32870  29.22216
 S  -13.45521  -1.81572  28.65912
 H  -16.75033  -2.52655  27.63973
 C  -15.96706  -4.95511  28.90655
 C  -17.64111  -4.78290  29.00966
 C  -18.18258  -4.81089  27.39829
 H  -19.21215  -4.28967  27.37157
 H  -17.44863  -4.23357  26.72173
 H  -18.09831  -5.65688  29.59514
 H  -17.90895  -3.78089  29.49738
 H  -15.72050  -5.45645  29.93590
 H  -15.70924  -5.71355  28.06519
 C  -18.29897  -6.32747  26.82138
 C  -18.72392  -6.47596  25.19225
 C  -19.00801  -5.04445  24.35705
 H  -19.55110  -5.29057  23.36375
 H  -17.99982  -4.52531  24.12724
 H  -19.67207  -4.34334  24.99354
 H  -17.86319  -7.02750  24.65589
 H  -19.68114  -7.11593  25.13598
 H  -17.28051  -6.86447  26.94695
 H  -19.09161  -6.90315  27.43889
 C  21.29326  4.64657  -28.51817
 C  19.96175  4.92038  -28.20190
 C  19.74081  5.23010  -26.82367
 C  20.90372  5.20071  -26.04772
 S  22.12690  4.79872  -27.09304
 H  19.11721  4.93389  -28.97042
 C  18.36581  5.60881  -26.02044
 C  16.82040  4.87547  -25.68326
 C  15.21630  4.68931  -26.27113
 H  14.52647  4.89668  -25.35889
 H  15.06370  5.54851  -27.02726
 H  17.14742  3.77037  -25.54226
 H  16.60661  5.32813  -24.63002
 H  17.99392  6.60342  -26.52607
 H  18.69869  5.90540  -24.93570
 C  14.75746  3.26903  -26.92019
 C  14.43374  3.17966  -28.57104
 C  14.36406  4.65597  -29.36581
 H  15.40706  5.15515  -29.34751
 H  13.59003  5.33884  -28.84091
 H  14.03634  4.48014  -30.46229
 H  15.26198  2.54602  -29.06345
 H  13.41727  2.65067  -28.70836
 H  15.57884  2.47952  -26.70208
 H  13.78709  2.92465  -26.38159
 H  -14.99882  -0.56821  27.22322
 H  -13.24191  -3.94856  29.84468
 H  21.68827  4.39450  -29.46897
 H  20.98620  5.39475  -25.00890
*
