# ================================================================
# Orca input file made by Matty Jones
# ================================================================
! ZINDO/S 
! NOPOP
! NOMOPRINT
* xyz 0   1
 C  8.62501  10.82166  -2.99447
 C  9.52769  11.57410  -2.24154
 C  10.38795  10.79216  -1.40919
 C  10.16341  9.41534  -1.50535
 S  8.92969  9.24037  -2.59977
 H  10.12437  12.54106  -2.55853
 C  11.59551  11.16611  -0.37446
 C  13.03086  12.00641  -0.76493
 C  13.28419  13.65302  -0.55744
 H  13.82685  14.05775  -1.49476
 H  12.26183  14.17763  -0.45527
 H  13.86457  11.46460  -0.16993
 H  13.20394  11.79603  -1.89067
 H  11.12683  11.82938  0.46493
 H  11.98170  10.20009  0.14262
 C  14.20099  13.93438  0.76712
 C  13.36933  13.76902  2.22437
 C  12.47618  15.12957  2.63345
 H  12.86214  16.04603  2.04149
 H  12.57476  15.33073  3.76845
 H  11.36450  14.94011  2.36834
 H  12.66506  12.86117  2.15038
 H  14.14468  13.58339  3.05803
 H  15.09205  13.19601  0.78800
 H  14.62471  15.01001  0.71862
 C  -13.98293  -15.88890  -2.94825
 C  -12.86370  -15.43112  -2.25137
 C  -13.08777  -14.22753  -1.51283
 C  -14.39051  -13.73243  -1.62711
 S  -15.18538  -14.79495  -2.62192
 H  -11.85053  -15.95616  -2.29194
 C  -11.82898  -13.64648  -0.68552
 C  -11.28658  -12.05029  -0.91140
 C  -11.96109  -10.77616  -0.05097
 H  -12.91713  -10.45052  -0.60584
 H  -11.20130  -9.89808  -0.14520
 H  -10.15573  -12.05561  -0.67062
 H  -11.42435  -11.81325  -2.03463
 H  -12.04221  -13.77449  0.45295
 H  -10.88720  -14.30044  -0.92221
 C  -12.25891  -11.00662  1.53160
 C  -11.11492  -10.39180  2.61537
 C  -9.87716  -11.42301  3.09282
 H  -10.05255  -12.47864  2.65516
 H  -9.85830  -11.48076  4.24963
 H  -8.86557  -11.00693  2.71327
 H  -10.63635  -9.45991  2.13348
 H  -11.68877  -10.07164  3.56542
 H  -12.35731  -12.13453  1.75997
 H  -13.26910  -10.50110  1.79364
 H  7.89796  11.18459  -3.67512
 H  10.67470  8.64479  -0.98723
 H  -14.05009  -16.75362  -3.55764
 H  -14.78699  -12.86056  -1.17298
*
