# ================================================================
# Orca input file made by Matty Jones
# ================================================================
! ZINDO/S 
! NOPOP
! NOMOPRINT
* xyz 0   1
 C  13.06589  8.16405  -8.62534
 C  13.40010  7.00046  -9.31978
 C  14.68158  6.46527  -8.97972
 C  15.36270  7.21002  -8.01187
 S  14.35767  8.47371  -7.63313
 H  12.79164  6.73549  -10.24723
 C  15.06401  5.12002  -9.78451
 C  14.40403  5.21021  -11.38727
 C  12.80000  4.56654  -11.31950
 H  13.03274  3.42302  -11.43079
 H  12.44871  4.70354  -10.22149
 H  14.38165  6.29053  -11.76059
 H  15.03707  4.55750  -12.08420
 H  14.64146  4.18104  -9.25937
 H  16.21407  5.01635  -9.89015
 C  11.46261  4.77968  -12.25543
 C  11.18027  5.95395  -13.44862
 C  10.21996  7.26496  -12.98953
 H  9.17219  7.15364  -13.47111
 H  10.70875  8.24644  -13.35932
 H  10.11416  7.29269  -11.83858
 H  10.65313  5.43209  -14.33178
 H  12.20019  6.36093  -13.79310
 H  11.28336  3.76845  -12.80240
 H  10.57851  4.92419  -11.50920
 C  -15.42733  -9.35781  9.28447
 C  -14.58170  -8.37746  9.80572
 C  -15.23556  -7.43758  10.66206
 C  -16.60441  -7.67696  10.81779
 S  -16.92910  -9.02003  9.90066
 H  -13.46069  -8.32971  9.59162
 C  -14.43983  -6.23127  11.36415
 C  -13.37621  -5.35999  10.38103
 C  -12.69438  -4.05350  11.20894
 H  -13.55467  -3.53828  11.79010
 H  -12.31432  -3.31485  10.40040
 H  -12.53175  -6.06030  10.03580
 H  -13.95696  -4.96159  9.47190
 H  -15.12883  -5.41525  11.78960
 H  -13.80688  -6.65948  12.24914
 C  -11.48169  -4.36905  12.24420
 C  -9.93451  -4.48099  11.58337
 C  -9.48099  -6.06254  11.23038
 H  -8.44034  -6.26866  11.69459
 H  -9.42848  -6.20064  10.08286
 H  -10.25211  -6.80307  11.67325
 H  -9.90541  -3.86714  10.60852
 H  -9.18314  -4.04157  12.33804
 H  -11.70308  -5.36010  12.79962
 H  -11.44341  -3.51805  13.03242
 H  12.17422  8.73039  -8.71363
 H  16.32079  7.00898  -7.60536
 H  -15.16484  -10.15106  8.63220
 H  -17.29082  -7.11719  11.40012
*
