# ================================================================
# Orca input file made by Matty Jones
# ================================================================
! ZINDO/S 
! NOPOP
! NOMOPRINT
* xyz 0   1
 C  -1.47477  2.42849  -1.12339
 C  -2.07701  1.17232  -1.20856
 C  -1.54019  0.20486  -0.30295
 C  -0.50887  0.69960  0.50137
 S  -0.31815  2.28569  0.05598
 H  -2.91856  0.91313  -1.93597
 C  -2.15451  -1.29753  -0.31054
 C  -2.50704  -2.16390  1.11634
 C  -3.16122  -3.72930  0.94021
 H  -2.70654  -4.15171  -0.03835
 H  -2.73564  -4.34668  1.82595
 H  -1.52478  -2.31949  1.69060
 H  -3.24049  -1.53695  1.73990
 H  -1.41188  -1.98856  -0.89659
 H  -3.16104  -1.28834  -0.90175
 C  -4.77478  -3.97974  0.89716
 C  -5.52663  -4.11683  -0.61395
 C  -6.19173  -2.70683  -1.23995
 H  -7.14474  -2.97396  -1.84183
 H  -5.42447  -2.19464  -1.93781
 H  -6.47173  -1.99056  -0.37556
 H  -4.74102  -4.50306  -1.36445
 H  -6.37179  -4.89638  -0.51520
 H  -5.01061  -4.96149  1.46684
 H  -5.29689  -3.10766  1.45263
 C  0.02293  -0.43090  2.18657
 C  1.22020  -0.06603  1.56906
 C  2.39162  -0.50746  2.25985
 C  2.11795  -1.22451  3.42873
 S  0.46428  -1.27391  3.54438
 H  1.48473  -0.08762  0.41174
 C  3.84703  -0.13363  1.64913
 C  4.21787  1.48023  1.14408
 C  3.86101  2.09222  -0.41880
 H  4.29931  1.34505  -1.18167
 H  2.71115  2.10760  -0.51904
 H  3.66660  2.16971  1.88475
 H  5.35600  1.60202  1.27999
 H  4.03919  -0.78973  0.71355
 H  4.66811  -0.38762  2.43957
 C  4.44707  3.58872  -0.73452
 C  3.87484  4.45149  -2.08944
 C  4.61636  4.39195  -3.60337
 H  5.76393  4.35151  -3.47253
 H  4.32879  5.34574  -4.19678
 H  4.24863  3.45816  -4.17709
 H  2.77295  4.15037  -2.23692
 H  3.94549  5.55100  -1.77288
 H  4.24704  4.26126  0.18565
 H  5.59357  3.50318  -0.87964
 H  -1.70771  3.29179  -1.69265
 H  0.03678  0.17146  1.24092
 H  -0.96105  -0.21466  1.85700
 H  2.82038  -1.64786  4.10027
*
