# ================================================================
# Orca input file made by Matty Jones
# ================================================================
! ZINDO/S 
! NOPOP
! NOMOPRINT
* xyz 0   1
 C  10.61945  16.12063  -2.76231
 C  10.95366  14.95704  -3.45675
 C  12.23514  14.42185  -3.11669
 C  12.91626  15.16660  -2.14883
 S  11.91124  16.43029  -1.77009
 H  10.34520  14.69207  -4.38420
 C  12.61757  13.07661  -3.92148
 C  11.95759  13.16679  -5.52423
 C  10.35357  12.52312  -5.45647
 H  10.58630  11.37960  -5.56776
 H  10.00227  12.66012  -4.35846
 H  11.93521  14.24711  -5.89756
 H  12.59064  12.51408  -6.22116
 H  12.19503  12.13763  -3.39633
 H  13.76764  12.97293  -4.02712
 C  9.01617  12.73627  -6.39240
 C  8.73383  13.91053  -7.58559
 C  7.77352  15.22154  -7.12650
 H  6.72575  15.11022  -7.60807
 H  8.26231  16.20302  -7.49628
 H  7.66772  15.24927  -5.97555
 H  8.20669  13.38867  -8.46874
 H  9.75375  14.31751  -7.93007
 H  8.83692  11.72503  -6.93937
 H  8.13208  12.88077  -5.64617
 C  -5.54492  -14.30429  5.39565
 C  -6.62849  -14.79575  4.66610
 C  -7.77748  -13.94497  4.68256
 C  -7.60029  -12.77582  5.42889
 S  -6.05310  -12.85514  6.02080
 H  -7.05534  -15.87452  4.97867
 C  -9.06632  -14.44132  3.84834
 C  -10.65092  -14.11007  4.28065
 C  -11.27526  -15.16725  5.43189
 H  -10.97966  -16.24517  5.13769
 H  -10.78531  -14.91118  6.44784
 H  -10.71665  -13.03544  4.67734
 H  -11.30019  -14.20412  3.32888
 H  -9.01936  -15.61035  3.76046
 H  -8.96029  -14.03258  2.75361
 C  -12.89275  -15.05215  5.55022
 C  -13.44399  -13.61920  6.24869
 C  -13.77914  -12.45037  5.08061
 H  -13.05544  -12.56666  4.18569
 H  -13.65440  -11.39799  5.54494
 H  -14.86790  -12.58909  4.71353
 H  -14.40468  -13.83707  6.84339
 H  -12.63104  -13.21029  6.95299
 H  -13.36684  -15.14522  4.49897
 H  -13.28399  -15.92363  6.20565
 H  9.72779  16.68697  -2.85060
 H  13.87435  14.96556  -1.74233
 H  -4.59697  -14.76116  5.52319
 H  -8.30692  -12.00106  5.58388
*
