# ================================================================
# Orca input file made by Matty Jones
# ================================================================
! ZINDO/S 
! NOPOP
! NOMOPRINT
* xyz 0   1
 C  13.11679  12.54871  -4.14742
 C  12.28291  11.43639  -4.02372
 C  12.82283  10.38909  -3.21383
 C  14.08946  10.67588  -2.69542
 S  14.46932  12.18886  -3.25846
 H  11.17420  11.47803  -4.27785
 C  11.95747  9.04947  -3.01103
 C  10.28342  9.22168  -2.90793
 C  9.74195  9.19368  -4.51929
 H  8.71238  9.71490  -4.54601
 H  10.47591  9.77101  -5.19585
 H  9.82622  8.34769  -2.32244
 H  10.01558  10.22369  -2.42020
 H  12.20403  8.54813  -1.98168
 H  12.21529  8.29102  -3.85239
 C  9.62556  7.67710  -5.09620
 C  9.20062  7.52861  -6.72534
 C  8.91653  8.96013  -7.56053
 H  8.37343  8.71401  -8.55383
 H  9.92472  9.47926  -7.79034
 H  8.25246  9.66124  -6.92404
 H  10.06134  6.97708  -7.26170
 H  8.24339  6.88864  -6.78160
 H  10.64402  7.14011  -4.97063
 H  8.83293  7.10143  -4.47870
 C  -12.07826  -11.52733  0.84073
 C  -11.48870  -11.07769  2.02317
 C  -12.29472  -10.15859  2.76469
 C  -13.52695  -9.88107  2.16476
 S  -13.55396  -10.77492  0.76806
 H  -10.66460  -11.65374  2.57515
 C  -11.62841  -9.61391  4.12221
 C  -10.02327  -9.13126  3.76799
 C  -8.89568  -8.58049  4.88992
 H  -8.96304  -7.42376  4.89498
 H  -7.85206  -8.87408  4.47277
 H  -9.49919  -10.02921  3.26522
 H  -10.13568  -8.28585  2.98558
 H  -12.20593  -8.69210  4.51808
 H  -11.59729  -10.44278  4.92910
 C  -9.00136  -9.12839  6.41567
 C  -9.90980  -8.18339  7.47356
 C  -11.49647  -8.68963  7.68425
 H  -12.04577  -8.72535  6.67189
 H  -12.03749  -7.94565  8.38839
 H  -11.49464  -9.74285  8.16621
 H  -9.38690  -8.19217  8.50138
 H  -9.93148  -7.10346  7.06789
 H  -7.93442  -9.21167  6.86097
 H  -9.47110  -10.18759  6.40679
 H  12.92571  13.43637  -4.69437
 H  14.68263  10.05602  -2.07291
 H  -11.66891  -12.20660  0.13745
 H  -14.28504  -9.23473  2.52686
*
