# ================================================================
# Orca input file made by Matty Jones
# ================================================================
! ZINDO/S 
! NOPOP
! NOMOPRINT
* xyz 0   1
 C  21.11020  -0.40231  0.64903
 C  22.30748  -0.03745  0.03152
 C  23.47889  -0.47887  0.72231
 C  23.20522  -1.19592  1.89119
 S  21.55155  -1.24532  2.00684
 H  22.57200  -0.05904  -1.12580
 C  24.93430  -0.10504  0.11160
 C  25.30514  1.50882  -0.39346
 C  24.94829  2.12081  -1.95634
 H  25.38658  1.37363  -2.71921
 H  23.79842  2.13619  -2.05657
 H  24.75387  2.19830  0.34722
 H  26.44327  1.63061  -0.25755
 H  25.12646  -0.76115  -0.82399
 H  25.75538  -0.35904  0.90203
 C  25.53434  3.61731  -2.27206
 C  24.96211  4.48008  -3.62697
 C  25.70363  4.42054  -5.14091
 H  26.85120  4.38010  -5.01007
 H  25.41606  5.37432  -5.73431
 H  25.33590  3.48675  -5.71463
 H  23.86022  4.17895  -3.77446
 H  25.03276  5.57959  -3.31042
 H  25.33431  4.28985  -1.35189
 H  26.68084  3.53177  -2.41718
 C  -19.41634  -1.29239  -0.67822
 C  -20.59221  -1.88404  -0.21434
 C  -21.39554  -1.02626  0.60000
 C  -20.85127  0.24915  0.78005
 S  -19.42480  0.24842  -0.06589
 H  -20.89783  -2.95811  -0.44960
 C  -22.78529  -1.58437  1.21878
 C  -24.30007  -0.80174  1.11330
 C  -25.52305  -1.58676  2.00431
 H  -24.96094  -2.20968  2.80715
 H  -26.08939  -0.73395  2.55381
 H  -24.60798  -0.90260  -0.00228
 H  -24.33458  0.29436  1.38280
 H  -22.62220  -1.73388  2.36708
 H  -22.98867  -2.64377  0.76614
 C  -26.64451  -2.55608  1.33189
 C  -27.54958  -3.36328  2.52178
 C  -28.82314  -2.50209  3.20614
 H  -28.40710  -1.79816  4.02594
 H  -29.57343  -3.24501  3.68117
 H  -29.35603  -1.87862  2.39121
 H  -26.83183  -3.67495  3.36747
 H  -27.99342  -4.30819  2.03046
 H  -27.37567  -1.93147  0.69177
 H  -26.13909  -3.34885  0.66346
 H  20.12622  -0.18607  0.31946
 H  23.90765  -1.61927  2.56273
 H  -18.67434  -1.73479  -1.29248
 H  -21.26400  1.04897  1.33999
*
