# ================================================================
# Orca input file made by Matty Jones
# ================================================================
! ZINDO/S 
! NOPOP
! NOMOPRINT
* xyz 0   1
 C  17.13321  6.80402  -7.50560
 C  16.29933  5.69171  -7.38189
 C  16.83926  4.64441  -6.57200
 C  18.10588  4.93119  -6.05359
 S  18.48575  6.44417  -6.61663
 H  15.19063  5.73335  -7.63602
 C  15.97389  3.30478  -6.36920
 C  14.29984  3.47699  -6.26610
 C  13.75837  3.44900  -7.87746
 H  12.72881  3.97022  -7.90419
 H  14.49233  4.02632  -8.55403
 H  13.84265  2.60301  -5.68062
 H  14.03200  4.47900  -5.77837
 H  16.22045  2.80344  -5.33985
 H  16.23171  2.54634  -7.21057
 C  13.64198  1.93242  -8.45437
 C  13.21704  1.78393  -10.08351
 C  12.93295  3.21545  -10.91871
 H  12.38985  2.96933  -11.91200
 H  13.94114  3.73458  -11.14851
 H  12.26888  3.91655  -10.28221
 H  14.07777  1.23239  -10.61987
 H  12.25982  1.14396  -10.13977
 H  14.66045  1.39542  -8.32880
 H  12.84935  1.35674  -7.83687
 C  -17.41856  -6.97105  6.31712
 C  -16.57292  -5.99070  6.83837
 C  -17.22679  -5.05083  7.69471
 C  -18.59563  -5.29021  7.85044
 S  -18.92033  -6.63327  6.93331
 H  -15.45192  -5.94295  6.62426
 C  -16.43105  -3.84452  8.39680
 C  -15.36744  -2.97324  7.41368
 C  -14.68561  -1.66675  8.24158
 H  -15.54590  -1.15153  8.82275
 H  -14.30555  -0.92809  7.43304
 H  -14.52297  -3.67355  7.06845
 H  -15.94818  -2.57483  6.50455
 H  -17.12006  -3.02850  8.82224
 H  -15.79810  -4.27272  9.28178
 C  -13.47291  -1.98230  9.27685
 C  -11.92573  -2.09424  8.61601
 C  -11.47221  -3.67579  8.26303
 H  -10.43156  -3.88190  8.72723
 H  -11.41971  -3.81388  7.11551
 H  -12.24333  -4.41632  8.70589
 H  -11.89663  -1.48039  7.64117
 H  -11.17437  -1.65482  9.37069
 H  -13.69431  -2.97334  9.83227
 H  -13.43463  -1.13130  10.06507
 H  16.94214  7.69168  -8.05254
 H  18.69905  4.31133  -5.43108
 H  -17.15607  -7.76430  5.66484
 H  -19.28204  -4.73044  8.43276
*
