# ================================================================
# Orca input file made by Matty Jones
# ================================================================
! ZINDO/S 
! NOPOP
! NOMOPRINT
* xyz 0   1
 C  -15.75466  -1.56065  -2.51112
 C  -16.43927  -2.63671  -1.94429
 C  -15.68824  -3.35427  -0.96179
 C  -14.40409  -2.84224  -0.75175
 S  -14.26743  -1.54686  -1.77827
 H  -17.48697  -2.97149  -2.25525
 C  -16.26949  -4.61853  -0.15231
 C  -17.09224  -5.93978  -0.84562
 C  -18.78517  -5.95716  -1.00967
 H  -19.24989  -5.71368  0.01767
 H  -19.08216  -5.14207  -1.76903
 H  -16.82378  -6.85873  -0.19920
 H  -16.65810  -6.07889  -1.90474
 H  -17.00380  -4.21813  0.66856
 H  -15.39086  -5.14390  0.40235
 C  -19.29801  -7.42038  -1.52696
 C  -20.96310  -7.71058  -1.62911
 C  -21.64275  -8.40853  -0.25354
 H  -22.54164  -9.06777  -0.56665
 H  -22.00512  -7.57252  0.45966
 H  -20.85424  -9.06292  0.28347
 H  -21.14307  -8.42743  -2.51381
 H  -21.49570  -6.70920  -1.82866
 H  -18.86863  -7.60278  -2.58754
 H  -18.86693  -8.22866  -0.81707
 C  21.90074  4.63825  -1.42116
 C  20.53803  4.39879  -1.23794
 C  19.87362  5.38463  -0.44362
 C  20.71594  6.40770  0.00262
 S  22.21731  6.04379  -0.60060
 H  19.98877  3.49960  -1.67949
 C  18.30821  5.39364  -0.05489
 C  17.60299  4.10275  0.77519
 C  17.72108  4.35751  2.44429
 H  17.86066  3.32024  2.94007
 H  18.67464  4.98403  2.64243
 H  16.49272  4.02850  0.48532
 H  18.15014  3.12984  0.50579
 H  18.06301  6.34832  0.56519
 H  17.68975  5.48037  -1.04725
 C  16.44044  5.09726  3.12489
 C  16.44086  6.77984  2.98820
 C  15.28935  7.48939  1.97864
 H  15.82133  8.19780  1.23279
 H  14.52400  8.10553  2.58783
 H  14.72863  6.66258  1.39368
 H  16.44033  7.13740  4.07249
 H  17.45130  7.06487  2.51722
 H  15.46569  4.70299  2.64565
 H  16.41889  4.84944  4.25664
 H  -16.11046  -0.89299  -3.25357
 H  -13.67140  -3.20590  -0.07757
 H  22.58834  4.04635  -1.96931
 H  20.45044  7.24130  0.60114
*
