# ================================================================
# Orca input file made by Matty Jones
# ================================================================
! ZINDO/S 
! NOPOP
! NOMOPRINT
* xyz 0   1
 C  -1.36926  2.40838  -2.08403
 C  -0.46658  3.16082  -1.33110
 C  0.39368  2.37888  -0.49875
 C  0.16915  1.00205  -0.59491
 S  -1.06458  0.82708  -1.68933
 H  0.13010  4.12778  -1.64809
 C  1.60124  2.75283  0.53598
 C  3.03660  3.59312  0.14550
 C  3.28992  5.23973  0.35299
 H  3.83259  5.64447  -0.58432
 H  2.26756  5.76435  0.45517
 H  3.87031  3.05131  0.74051
 H  3.20967  3.38274  -0.98024
 H  1.13257  3.41610  1.37537
 H  1.98744  1.78681  1.05305
 C  4.20673  5.52109  1.67755
 C  3.37507  5.35574  3.13480
 C  2.48192  6.71629  3.54388
 H  2.86787  7.63275  2.95193
 H  2.58049  6.91744  4.67888
 H  1.37023  6.52683  3.27878
 H  2.67080  4.44789  3.06082
 H  4.15041  5.17010  3.96847
 H  5.09778  4.78273  1.69844
 H  4.63045  6.59673  1.62906
 C  0.63604  -0.43714  0.15650
 C  0.03828  -1.64477  -0.20710
 C  0.54003  -2.78108  0.50092
 C  1.53904  -2.46914  1.42828
 S  1.74603  -0.82692  1.32486
 H  -0.79033  -1.75125  -0.98523
 C  -0.06066  -4.26095  0.21365
 C  -1.74994  -4.55449  0.39726
 C  -3.17382  -4.44287  -0.56191
 H  -3.86593  -5.26663  -0.11599
 H  -3.62076  -3.41401  -0.25224
 H  -1.76642  -5.67097  0.71656
 H  -2.01712  -3.90865  1.32351
 H  0.47581  -5.07688  0.83850
 H  0.14208  -4.51329  -0.91294
 C  -3.32980  -4.53712  -2.18274
 C  -3.82496  -6.03897  -2.80611
 C  -5.49513  -6.25788  -2.94010
 H  -5.71897  -7.38410  -3.08726
 H  -5.88856  -5.66277  -3.85053
 H  -6.01118  -5.88228  -1.97534
 H  -3.37654  -6.14222  -3.86256
 H  -3.40839  -6.86760  -2.12468
 H  -4.11489  -3.75975  -2.52997
 H  -2.31559  -4.28210  -2.67528
 H  -2.09631  2.77131  -2.76468
 H  2.05583  -3.14153  2.06422
*
