# ================================================================
# Orca input file made by Matty Jones
# ================================================================
! ZINDO/S 
! NOPOP
! NOMOPRINT
* xyz 0   1
 C  22.48190  -2.18038  -4.10674
 C  21.87967  -3.43654  -4.19191
 C  22.41649  -4.40400  -3.28630
 C  23.44781  -3.90927  -2.48198
 S  23.63853  -2.32318  -2.92737
 H  21.03812  -3.69573  -4.91932
 C  21.80217  -5.90639  -3.29388
 C  21.44964  -6.77277  -1.86701
 C  20.79545  -8.33816  -2.04314
 H  21.25014  -8.76058  -3.02170
 H  21.22104  -8.95555  -1.15740
 H  22.43190  -6.92836  -1.29275
 H  20.71619  -6.14582  -1.24345
 H  22.54480  -6.59743  -3.87994
 H  20.79564  -5.89721  -3.88510
 C  19.18189  -8.58861  -2.08619
 C  18.43005  -8.72569  -3.59730
 C  17.76495  -7.31569  -4.22330
 H  16.81194  -7.58282  -4.82517
 H  18.53220  -6.80350  -4.92116
 H  17.48494  -6.59943  -3.35891
 H  19.21566  -9.11193  -4.34780
 H  17.58489  -9.50525  -3.49855
 H  18.94606  -9.57035  -1.51651
 H  18.65978  -7.71653  -1.53071
 C  -22.41181  2.57627  4.86192
 C  -22.36373  3.78412  4.16430
 C  -22.79253  4.91569  4.92585
 C  -23.18117  4.59976  6.23140
 S  -22.97667  2.96005  6.37279
 H  -22.28873  3.79386  3.02301
 C  -22.73686  6.32977  4.13991
 C  -21.25559  6.39320  3.25045
 C  -20.72103  7.62095  2.21027
 H  -20.47024  8.55177  2.84492
 H  -21.58412  7.87268  1.48610
 H  -20.43192  6.28736  4.05392
 H  -21.24523  5.46515  2.56888
 H  -23.60906  6.42094  3.38363
 H  -22.75996  7.22434  4.87215
 C  -19.40641  7.14894  1.35796
 C  -17.87884  7.58700  1.92889
 C  -17.34462  9.02514  1.23534
 H  -17.04378  8.82774  0.13472
 H  -16.43002  9.42034  1.82289
 H  -18.19758  9.80556  1.26990
 H  -17.92938  7.71958  3.07050
 H  -17.12966  6.75242  1.66634
 H  -19.49748  7.56771  0.28149
 H  -19.40127  5.99096  1.28773
 H  22.24897  -1.31708  -4.67600
 H  23.99346  -4.43741  -1.74243
 H  -22.14374  1.61604  4.50178
 H  -23.53285  5.26831  6.97501
*
