# ================================================================
# Orca input file made by Matty Jones
# ================================================================
! ZINDO/S 
! NOPOP
! NOMOPRINT
* xyz 0   1
 C  -5.39975  1.51158  -5.05734
 C  -4.49707  2.26402  -4.30441
 C  -3.63682  1.48209  -3.47206
 C  -3.86135  0.10526  -3.56822
 S  -5.09508  -0.06971  -4.66264
 H  -3.90040  3.23098  -4.62140
 C  -2.42925  1.85603  -2.43733
 C  -0.99390  2.69633  -2.82781
 C  -0.74057  4.34294  -2.62032
 H  -0.19791  4.74767  -3.55763
 H  -1.76294  4.86755  -2.51814
 H  -0.16019  2.15452  -2.23280
 H  -0.82082  2.48595  -3.95355
 H  -2.89793  2.51930  -1.59794
 H  -2.04306  0.89001  -1.92026
 C  0.17623  4.62430  -1.29576
 C  -0.65543  4.45894  0.16149
 C  -1.54858  5.81950  0.57057
 H  -1.16262  6.73595  -0.02138
 H  -1.45001  6.02065  1.70557
 H  -2.66027  5.63003  0.30547
 H  -1.35970  3.55109  0.08751
 H  0.11992  4.27331  0.99516
 H  1.06729  3.88593  -1.27487
 H  0.59995  5.69994  -1.34425
 C  -2.49264  -4.98507  -0.18239
 C  -1.27008  -4.33151  -0.02086
 C  -0.39067  -4.96088  0.91445
 C  -0.92152  -6.11725  1.49439
 S  -2.42978  -6.29759  0.82878
 H  -1.08353  -3.17375  0.08422
 C  1.08539  -4.44268  1.32320
 C  1.29080  -2.85159  1.88352
 C  2.90342  -2.38832  2.19404
 H  2.90072  -1.23507  2.02446
 H  3.51788  -2.85450  1.33455
 H  0.86297  -2.13616  1.09261
 H  0.70456  -2.74997  2.86843
 H  1.52077  -5.12444  2.16529
 H  1.78712  -4.54389  0.39392
 C  3.66562  -2.63105  3.61739
 C  5.31935  -2.22036  3.58617
 C  5.73277  -0.62977  3.94948
 H  6.88711  -0.53926  3.98673
 H  5.28736  -0.33666  4.97526
 H  5.31808  0.06908  3.12595
 H  5.85802  -2.90743  4.33918
 H  5.72465  -2.41897  2.52658
 H  3.59093  -3.74519  3.91227
 H  3.16766  -1.99231  4.44067
 H  -6.12680  1.87451  -5.73799
 H  -3.35007  -0.66528  -3.05010
 H  -3.29266  -4.70202  -0.81757
 H  -0.45713  -6.74677  2.20969
*
