# ================================================================
# Orca input file made by Matty Jones
# ================================================================
! ZINDO/S 
! NOPOP
! NOMOPRINT
* xyz 0   1
 C  24.30052  -4.75763  -8.83469
 C  23.69828  -6.01380  -8.91986
 C  24.23510  -6.98126  -8.01425
 C  25.26642  -6.48652  -7.20993
 S  25.45714  -4.90043  -7.65533
 H  22.85673  -6.27299  -9.64727
 C  23.62078  -8.48365  -8.02184
 C  23.26825  -9.35003  -6.59497
 C  22.61407  -10.91542  -6.77109
 H  23.06875  -11.33784  -7.74966
 H  23.03965  -11.53280  -5.88535
 H  24.25051  -9.50562  -6.02070
 H  22.53480  -8.72308  -5.97140
 H  24.36341  -9.17468  -8.60789
 H  22.61425  -8.47446  -8.61305
 C  21.00051  -11.16587  -6.81415
 C  20.24866  -11.30295  -8.32525
 C  19.58356  -9.89295  -8.95125
 H  18.63055  -10.16008  -9.55313
 H  20.35082  -9.38076  -9.64911
 H  19.30356  -9.17669  -8.08686
 H  21.03427  -11.68918  -9.07576
 H  19.40350  -12.08250  -8.22650
 H  20.76468  -12.14761  -6.24446
 H  20.47840  -10.29379  -6.25867
 C  -24.30709  5.55563  5.10209
 C  -23.72565  6.21745  6.18460
 C  -24.56786  7.20343  6.78692
 C  -25.82064  7.32077  6.17694
 S  -25.82036  6.21398  4.94185
 H  -22.66807  6.00668  6.56128
 C  -24.15108  8.13743  8.04282
 C  -22.83648  9.18378  7.80876
 C  -22.42134  10.22934  9.07997
 H  -23.40028  10.70706  9.46993
 H  -21.95184  9.60497  9.92811
 H  -21.91227  8.54203  7.56727
 H  -23.10190  9.84254  6.89997
 H  -25.04285  8.76001  8.44540
 H  -23.81943  7.43477  8.91921
 C  -21.40459  11.41124  8.59517
 C  -19.74118  11.12576  8.64875
 C  -19.29167  9.67072  9.35490
 H  -18.14792  9.53035  9.24191
 H  -19.84118  8.79726  8.83381
 H  -19.56787  9.69299  10.47886
 H  -19.34898  11.12730  7.56308
 H  -19.24328  11.98515  9.23422
 H  -21.65806  11.69356  7.49984
 H  -21.59608  12.34526  9.25607
 H  24.06758  -3.89433  -9.40396
 H  25.81207  -7.01467  -6.47039
 H  -23.87281  4.79292  4.50771
 H  -26.60606  7.97926  6.44734
*
