# ================================================================
# Orca input file made by Matty Jones
# ================================================================
! ZINDO/S 
! NOPOP
! NOMOPRINT
* xyz 0   1
 C  -8.59792  17.90900  24.03670
 C  -9.43180  16.79669  24.16040
 C  -8.89188  15.74939  24.97029
 C  -7.62525  16.03617  25.48870
 S  -7.24538  17.54916  24.92566
 H  -10.54051  16.83833  23.90627
 C  -9.75724  14.40976  25.17309
 C  -11.43129  14.58197  25.27619
 C  -11.97276  14.55398  23.66483
 H  -13.00233  15.07520  23.63811
 H  -11.23880  15.13130  22.98827
 H  -11.88849  13.70799  25.86168
 H  -11.69913  15.58398  25.76392
 H  -9.51068  13.90842  26.20244
 H  -9.49942  13.65132  24.33173
 C  -12.08915  13.03740  23.08792
 C  -12.51409  12.88891  21.45878
 C  -12.79818  14.32043  20.62359
 H  -13.34128  14.07431  19.63029
 H  -11.78999  14.83956  20.39378
 H  -13.46225  15.02153  21.26008
 H  -11.65336  12.33737  20.92242
 H  -13.47132  12.24894  21.40252
 H  -11.07069  12.50040  23.21349
 H  -12.88178  12.46172  23.70542
 C  12.56543  -10.56703  -26.37954
 C  11.84163  -11.57852  -25.74635
 C  12.65136  -12.51952  -25.03703
 C  14.02144  -12.24970  -25.11048
 S  14.15697  -10.88034  -26.03616
 H  10.70341  -11.65902  -25.77781
 C  12.08068  -13.79999  -24.21909
 C  10.74717  -13.69116  -23.14974
 C  10.36506  -15.14260  -22.31546
 H  10.05658  -14.76610  -21.25727
 H  11.38710  -15.68312  -22.21261
 H  9.82768  -13.40135  -23.77714
 H  10.97393  -12.87838  -22.37233
 H  12.94457  -14.22773  -23.55546
 H  11.78967  -14.62770  -24.98112
 C  9.26559  -16.29230  -22.70938
 C  9.59730  -17.74425  -21.87473
 C  8.54842  -19.05040  -22.05345
 H  8.51332  -19.37421  -23.16266
 H  7.49114  -18.74254  -21.69967
 H  8.93183  -19.93134  -21.40535
 H  10.63018  -18.09863  -22.25268
 H  9.66756  -17.49792  -20.75175
 H  9.27024  -16.50037  -23.84038
 H  8.21008  -15.95055  -22.38462
 H  -8.78900  18.79666  23.48975
 H  -7.03208  15.41632  26.11121
 H  12.17911  -9.76718  -26.95798
 H  14.80859  -12.80429  -24.66729
*
