# ================================================================
# Orca input file made by Matty Jones
# ================================================================
! ZINDO/S 
! NOPOP
! NOMOPRINT
* xyz 0   1
 C  -10.69500  13.53245  23.26274
 C  -9.79232  14.28489  24.01566
 C  -8.93206  13.50295  24.84801
 C  -9.15660  12.12613  24.75185
 S  -10.39032  11.95116  23.65744
 H  -9.19564  15.25185  23.69867
 C  -7.72450  13.87690  25.88274
 C  -6.28915  14.71720  25.49227
 C  -6.03582  16.36381  25.69976
 H  -5.49316  16.76854  24.76244
 H  -7.05818  16.88842  25.80193
 H  -5.45544  14.17539  26.08728
 H  -6.11607  14.50682  24.36653
 H  -8.19317  14.54017  26.72213
 H  -7.33831  12.91088  26.39982
 C  -5.11902  16.64517  27.02432
 C  -5.95067  16.47981  28.48157
 C  -6.84382  17.84036  28.89065
 H  -6.45787  18.75682  28.29870
 H  -6.74525  18.04152  30.02565
 H  -7.95551  17.65090  28.62554
 H  -6.65495  15.57196  28.40758
 H  -5.17533  16.29418  29.31524
 H  -4.22796  15.90680  27.04521
 H  -4.69529  17.72080  26.97582
 C  9.02960  -11.01631  -28.99821
 C  8.30581  -12.02780  -28.36502
 C  9.11553  -12.96880  -27.65570
 C  10.48561  -12.69898  -27.72915
 S  10.62115  -11.32962  -28.65483
 H  7.16759  -12.10830  -28.39648
 C  8.54486  -14.24928  -26.83776
 C  7.21135  -14.14044  -25.76841
 C  6.82924  -15.59188  -24.93413
 H  6.52076  -15.21538  -23.87594
 H  7.85127  -16.13240  -24.83128
 H  6.29185  -13.85063  -26.39581
 H  7.43810  -13.32766  -24.99101
 H  9.40875  -14.67701  -26.17413
 H  8.25384  -15.07698  -27.59979
 C  5.72977  -16.74159  -25.32805
 C  6.06148  -18.19353  -24.49340
 C  5.01260  -19.49969  -24.67212
 H  4.97749  -19.82350  -25.78133
 H  3.95532  -19.19182  -24.31834
 H  5.39600  -20.38062  -24.02402
 H  7.09435  -18.54791  -24.87135
 H  6.13173  -17.94720  -23.37042
 H  5.73442  -16.94965  -26.45905
 H  4.67425  -16.39983  -25.00329
 H  -11.42205  13.89538  22.58209
 H  -8.64531  11.35558  25.26998
 H  8.64328  -10.21646  -29.57665
 H  11.27277  -13.25357  -27.28596
*
