# ================================================================
# Orca input file made by Matty Jones
# ================================================================
! ZINDO/S 
! NOPOP
! NOMOPRINT
* xyz 0   1
 C  24.84740  -4.59999  -1.44380
 C  24.16278  -5.67605  -0.87697
 C  24.91382  -6.39361  0.10553
 C  26.19797  -5.88158  0.31557
 S  26.33463  -4.58620  -0.71095
 H  23.11509  -6.01083  -1.18793
 C  24.33257  -7.65787  0.91501
 C  23.50982  -8.97912  0.22170
 C  21.81689  -8.99650  0.05765
 H  21.35216  -8.75302  1.08499
 H  21.51990  -8.18141  -0.70170
 H  23.77828  -9.89807  0.86812
 H  23.94396  -9.11823  -0.83742
 H  23.59825  -7.25747  1.73588
 H  25.21120  -8.18324  1.46967
 C  21.30405  -10.45972  -0.45963
 C  19.63896  -10.74992  -0.56179
 C  18.95930  -11.44787  0.81378
 H  18.06042  -12.10711  0.50067
 H  18.59694  -10.61186  1.52698
 H  19.74782  -12.10226  1.35079
 H  19.45899  -11.46677  -1.44649
 H  19.10636  -9.74854  -0.76134
 H  21.73343  -10.64212  -1.52022
 H  21.73513  -11.26800  0.25025
 C  -24.32418  4.77735  1.77178
 C  -24.27610  5.98520  1.07415
 C  -24.70490  7.11677  1.83570
 C  -25.09354  6.80084  3.14126
 S  -24.88905  5.16113  3.28265
 H  -24.20110  5.99495  -0.06713
 C  -24.64923  8.53085  1.04977
 C  -23.16796  8.59428  0.16031
 C  -22.63341  9.82204  -0.87987
 H  -22.38261  10.75285  -0.24522
 H  -23.49650  10.07377  -1.60404
 H  -22.34430  8.48844  0.96378
 H  -23.15760  7.66623  -0.52127
 H  -25.52144  8.62203  0.29349
 H  -24.67233  9.42542  1.78201
 C  -21.31879  9.35002  -1.73218
 C  -19.79121  9.78808  -1.16126
 C  -19.25699  11.22622  -1.85481
 H  -18.95615  11.02883  -2.95542
 H  -18.34240  11.62142  -1.26725
 H  -20.10996  12.00665  -1.82024
 H  -19.84176  9.92066  -0.01964
 H  -19.04204  8.95350  -1.42380
 H  -21.40985  9.76880  -2.80865
 H  -21.31364  8.19205  -1.80241
 H  24.49160  -3.93233  -2.18625
 H  26.93066  -6.24524  0.98975
 H  -24.05611  3.81713  1.41164
 H  -25.44522  7.46940  3.88487
*
