# ================================================================
# Orca input file made by Matty Jones
# ================================================================
! ZINDO/S 
! NOPOP
! NOMOPRINT
* xyz 0   1
 C  12.58969  10.38405  -2.41652
 C  13.49237  11.13649  -1.66360
 C  14.35263  10.35455  -0.83125
 C  14.12810  8.97773  -0.92741
 S  12.89437  8.80276  -2.02182
 H  14.08905  12.10345  -1.98059
 C  15.56019  10.72850  0.20348
 C  16.99555  11.56879  -0.18699
 C  17.24888  13.21541  0.02050
 H  17.79154  13.62014  -0.91682
 H  16.22651  13.74002  0.12267
 H  17.82926  11.02699  0.40802
 H  17.16863  11.35842  -1.31273
 H  15.09152  11.39177  1.04287
 H  15.94639  9.76248  0.72056
 C  18.16568  13.49677  1.34506
 C  17.33402  13.33141  2.80231
 C  16.44087  14.69196  3.21139
 H  16.82682  15.60842  2.61944
 H  16.53944  14.89312  4.34639
 H  15.32918  14.50250  2.94628
 H  16.62975  12.42356  2.72832
 H  18.10937  13.14578  3.63598
 H  19.05673  12.75840  1.36595
 H  18.58940  14.57240  1.29656
 C  -11.07197  -12.36682  -0.19037
 C  -12.15554  -12.85827  -0.91993
 C  -13.30453  -12.00750  -0.90346
 C  -13.12734  -10.83835  -0.15713
 S  -11.58015  -10.91766  0.43477
 H  -12.58239  -13.93704  -0.60736
 C  -14.59337  -12.50384  -1.73769
 C  -16.17797  -12.17260  -1.30538
 C  -16.80231  -13.22977  -0.15413
 H  -16.50671  -14.30770  -0.44833
 H  -16.31236  -12.97371  0.86181
 H  -16.24369  -11.09797  -0.90869
 H  -16.82724  -12.26664  -2.25715
 H  -14.54641  -13.67287  -1.82557
 H  -14.48733  -12.09510  -2.83241
 C  -18.41980  -13.11467  -0.03581
 C  -18.97104  -11.68173  0.66266
 C  -19.30619  -10.51290  -0.50542
 H  -18.58249  -10.62918  -1.40033
 H  -19.18145  -9.46052  -0.04109
 H  -20.39495  -10.65161  -0.87249
 H  -19.93173  -11.89959  1.25736
 H  -18.15809  -11.27281  1.36696
 H  -18.89389  -13.20774  -1.08706
 H  -18.81104  -13.98616  0.61962
 H  11.86265  10.74698  -3.09717
 H  14.63938  8.20718  -0.40928
 H  -10.12402  -12.82368  -0.06283
 H  -13.83397  -10.06359  -0.00215
*
