# ================================================================
# Orca input file made by Matty Jones
# ================================================================
! ZINDO/S 
! NOPOP
! NOMOPRINT
* xyz 0   1
 C  -16.19095  28.09722  -4.94073
 C  -15.03085  28.85631  -4.77993
 C  -14.16944  28.39247  -3.73729
 C  -14.65179  27.26141  -3.07143
 S  -16.09833  26.89987  -3.79756
 H  -14.84805  29.82296  -5.35373
 C  -12.81724  29.23883  -3.50758
 C  -11.99748  29.58771  -4.96606
 C  -10.72248  30.68911  -4.81030
 H  -11.04767  31.39150  -3.94027
 H  -10.78075  31.31806  -5.79143
 H  -11.56211  28.59409  -5.35594
 H  -12.73613  30.01342  -5.73520
 H  -13.05223  30.24152  -2.98618
 H  -12.07334  28.63784  -2.84022
 C  -9.15276  30.34136  -4.57895
 C  -8.22713  30.37662  -5.99592
 C  -7.67706  31.92526  -6.38130
 H  -8.51119  32.69492  -6.15577
 H  -7.40910  31.96357  -7.50632
 H  -6.74031  32.16908  -5.74824
 H  -7.30803  29.69981  -5.83982
 H  -8.86162  29.97840  -6.86807
 H  -9.04847  29.28825  -4.11542
 H  -8.69570  31.11508  -3.84936
 C  9.21673  -33.95267  3.37734
 C  9.96550  -32.97871  4.03964
 C  9.17949  -32.03922  4.77707
 C  7.80311  -32.27251  4.69666
 S  7.63348  -33.61009  3.73099
 H  11.10787  -32.97576  4.06861
 C  9.85734  -30.83628  5.62135
 C  11.16233  -30.04821  4.90511
 C  11.93971  -28.77498  5.71852
 H  12.06341  -29.05826  6.82886
 H  11.29353  -27.82476  5.63239
 H  11.96784  -30.85404  4.72068
 H  10.79970  -29.62848  3.89401
 H  9.06584  -29.99869  5.80940
 H  10.22691  -31.23094  6.65248
 C  13.39182  -28.55348  5.00878
 C  14.33201  -27.21961  5.42854
 C  14.08353  -25.93718  4.36773
 H  14.82782  -25.08683  4.61443
 H  12.99816  -25.55314  4.47765
 H  14.25813  -26.30183  3.28267
 H  14.06039  -26.88327  6.49463
 H  15.44264  -27.52216  5.38472
 H  13.23455  -28.50670  3.86151
 H  14.04246  -29.48739  5.24286
 H  -16.96749  28.25328  -5.64516
 H  -14.18964  26.74352  -2.27030
 H  9.58300  -34.74444  2.77522
 H  7.03002  -31.71182  5.15663
*
