# ================================================================
# Orca input file made by Matty Jones
# ================================================================
! ZINDO/S 
! NOPOP
! NOMOPRINT
* xyz 0   1
 C  -19.95823  -3.74436  -1.98897
 C  -18.76095  -3.37949  -2.60648
 C  -17.58954  -3.82092  -1.91569
 C  -17.86321  -4.53797  -0.74682
 S  -19.51688  -4.58737  -0.63117
 H  -18.49643  -3.40109  -3.76381
 C  -16.13413  -3.44709  -2.52641
 C  -15.76329  -1.83323  -3.03147
 C  -16.12014  -1.22124  -4.59435
 H  -15.68185  -1.96842  -5.35722
 H  -17.27001  -1.20586  -4.69458
 H  -16.31455  -1.14375  -2.29079
 H  -14.62516  -1.71144  -2.89556
 H  -15.94197  -4.10320  -3.46200
 H  -15.31305  -3.70108  -1.73597
 C  -15.53409  0.27526  -4.91006
 C  -16.10632  1.13803  -6.26498
 C  -15.36480  1.07849  -7.77892
 H  -14.21723  1.03805  -7.64807
 H  -15.65237  2.03228  -8.37232
 H  -15.73253  0.14470  -8.35264
 H  -17.20821  0.83691  -6.41247
 H  -16.03567  2.23754  -5.94843
 H  -15.73412  0.94780  -3.98989
 H  -14.38759  0.18972  -5.05519
 C  20.47734  0.69323  1.54411
 C  19.11463  0.45377  1.72733
 C  18.45021  1.43961  2.52164
 C  19.29253  2.46268  2.96789
 S  20.79391  2.09877  2.36467
 H  18.56537  -0.44542  1.28578
 C  16.88480  1.44862  2.91038
 C  16.17959  0.15773  3.74046
 C  16.29768  0.41249  5.40956
 H  16.43726  -0.62478  5.90534
 H  17.25123  1.03901  5.60770
 H  15.06932  0.08348  3.45059
 H  16.72673  -0.81518  3.47106
 H  16.63961  2.40330  3.53046
 H  16.26634  1.53535  1.91802
 C  15.01703  1.15224  6.09016
 C  15.01746  2.83482  5.95347
 C  13.86594  3.54437  4.94391
 H  14.39793  4.25278  4.19806
 H  13.10060  4.16051  5.55310
 H  13.30522  2.71756  4.35895
 H  15.01693  3.19238  7.03776
 H  16.02790  3.11985  5.48249
 H  14.04229  0.75797  5.61092
 H  14.99548  0.90442  7.22191
 H  -20.94221  -3.52812  -2.31854
 H  -17.16078  -4.96132  -0.07527
 H  21.16493  0.10133  0.99596
 H  19.02703  3.29628  3.56641
*
