# ================================================================
# Orca input file made by Matty Jones
# ================================================================
! ZINDO/S 
! NOPOP
! NOMOPRINT
* xyz 0   1
 C  -12.67641  9.84490  26.32747
 C  -11.77373  10.59735  27.08040
 C  -10.91347  9.81541  27.91275
 C  -11.13800  8.43858  27.81659
 S  -12.37173  8.26361  26.72217
 H  -11.17705  11.56431  26.76341
 C  -9.70591  10.18936  28.94748
 C  -8.27056  11.02965  28.55701
 C  -8.01723  12.67626  28.76450
 H  -7.47457  13.08100  27.82718
 H  -9.03959  13.20087  28.86667
 H  -7.43685  10.48784  29.15201
 H  -8.09748  10.81927  27.43127
 H  -10.17458  10.85263  29.78687
 H  -9.31971  9.22334  29.46456
 C  -7.10043  12.95762  30.08906
 C  -7.93208  12.79227  31.54631
 C  -8.82523  14.15282  31.95539
 H  -8.43928  15.06928  31.36343
 H  -8.72666  14.35397  33.09039
 H  -9.93692  13.96336  31.69028
 H  -8.63635  11.88442  31.47232
 H  -7.15674  12.60663  32.37998
 H  -6.20937  12.21926  30.10995
 H  -6.67670  14.03326  30.04056
 C  4.79523  -12.45092  -28.46778
 C  6.12189  -12.25120  -28.85250
 C  7.08162  -12.80187  -27.94699
 C  6.50990  -13.43963  -26.84167
 S  4.87012  -13.29073  -27.04012
 H  6.59463  -11.25563  -29.28229
 C  8.67525  -12.67689  -28.17506
 C  9.18125  -11.07305  -28.43780
 C  10.80315  -10.64752  -28.68895
 H  11.41037  -11.62483  -28.77846
 H  11.16422  -10.07590  -27.75006
 H  8.61676  -10.70836  -29.37422
 H  8.82383  -10.46839  -27.52040
 H  9.26120  -13.03516  -27.23956
 H  9.00304  -13.31240  -29.08701
 C  11.01935  -9.71199  -30.00705
 C  11.57000  -10.39586  -31.45057
 C  12.37610  -11.86138  -31.29818
 H  13.15059  -11.78493  -30.44074
 H  12.92629  -12.09483  -32.29003
 H  11.61636  -12.70194  -31.06730
 H  10.65521  -10.56481  -32.13293
 H  12.28445  -9.64194  -31.95153
 H  10.01688  -9.18690  -30.26153
 H  11.78734  -8.88517  -29.73258
 H  -13.40346  10.20783  25.64683
 H  -10.62672  7.66804  28.33471
 H  3.92358  -12.13280  -28.98025
 H  7.01817  -13.91808  -26.04396
*
