# ================================================================
# Orca input file made by Matty Jones
# ================================================================
! ZINDO/S 
! NOPOP
! NOMOPRINT
* xyz 0   1
 C  9.50297  7.54699  -0.27694
 C  10.72553  8.20055  -0.11541
 C  11.60494  7.57118  0.81990
 C  11.07409  6.41481  1.39984
 S  9.56583  6.23447  0.73423
 H  10.91208  9.35831  -0.01033
 C  13.08099  8.08938  1.22865
 C  13.28640  9.68046  1.78897
 C  14.89903  10.14374  2.09949
 H  14.89633  11.29698  1.92991
 H  15.51349  9.67755  1.24000
 H  12.85858  10.39589  0.99806
 H  12.70017  9.78208  2.77388
 H  13.51638  7.40761  2.07073
 H  13.78273  7.98816  0.29937
 C  15.66123  9.90101  3.52284
 C  17.31496  10.31170  3.49162
 C  17.72838  11.90228  3.85493
 H  18.88272  11.99280  3.89218
 H  17.28297  12.19539  4.88071
 H  17.31369  12.60113  3.03140
 H  17.85363  9.62463  4.24462
 H  17.72026  10.11309  2.43203
 H  15.58654  8.78687  3.81772
 H  15.16327  10.53974  4.34612
 C  -16.01209  -12.66692  -5.10567
 C  -14.89285  -12.20914  -4.40879
 C  -15.11692  -11.00555  -3.67025
 C  -16.41966  -10.51046  -3.78453
 S  -17.21454  -11.57298  -4.77935
 H  -13.87968  -12.73419  -4.44937
 C  -13.85813  -10.42450  -2.84294
 C  -13.31573  -8.82832  -3.06883
 C  -13.99025  -7.55419  -2.20839
 H  -14.94629  -7.22855  -2.76326
 H  -13.23045  -6.67610  -2.30262
 H  -12.18488  -8.83363  -2.82804
 H  -13.45351  -8.59127  -4.19206
 H  -14.07136  -10.55251  -1.70448
 H  -12.91635  -11.07846  -3.07963
 C  -14.28807  -7.78464  -0.62582
 C  -13.14407  -7.16982  0.45794
 C  -11.90632  -8.20103  0.93540
 H  -12.08171  -9.25666  0.49774
 H  -11.88745  -8.25878  2.09221
 H  -10.89473  -7.78495  0.55585
 H  -12.66551  -6.23794  -0.02395
 H  -13.71793  -6.84966  1.40799
 H  -14.38647  -8.91256  -0.39746
 H  -15.29826  -7.27912  -0.36378
 H  8.70295  7.83004  -0.91212
 H  11.53847  5.78529  2.11514
 H  -16.07924  -13.53164  -5.71506
 H  -16.81614  -9.63858  -3.33040
*
