# ================================================================
# Orca input file made by Matty Jones
# ================================================================
! ZINDO/S 
! NOPOP
! NOMOPRINT
* xyz 0   1
 C  -23.57251  3.68670  -5.21741
 C  -24.17027  2.47907  -5.58102
 C  -23.66852  1.34276  -4.87300
 C  -22.66951  1.65470  -3.94563
 S  -22.46252  3.29691  -4.04906
 H  -24.99888  2.37258  -6.35914
 C  -24.26921  -0.13711  -5.16026
 C  -25.95849  -0.43065  -4.97666
 C  -27.38237  -0.31903  -5.93583
 H  -28.07448  -1.14279  -5.48990
 H  -27.82931  0.70983  -5.62616
 H  -25.97497  -1.54714  -4.65736
 H  -26.22567  0.21519  -4.05041
 H  -23.73274  -0.95305  -4.53542
 H  -24.06647  -0.38945  -6.28685
 C  -27.53835  -0.41328  -7.55665
 C  -28.03351  -1.91513  -8.18002
 C  -29.70368  -2.13405  -8.31402
 H  -29.92752  -3.26027  -8.46118
 H  -30.09711  -1.53893  -9.22445
 H  -30.21973  -1.75844  -7.34926
 H  -27.58509  -2.01838  -9.23648
 H  -27.61694  -2.74376  -7.49860
 H  -28.32344  0.36408  -7.90389
 H  -26.52414  -0.15827  -8.04919
 C  23.62131  -3.31560  4.52006
 C  24.46694  -2.33524  5.04131
 C  23.81308  -1.39537  5.89765
 C  22.44423  -1.63475  6.05338
 S  22.11954  -2.97781  5.13625
 H  25.58795  -2.28749  4.82720
 C  24.60881  -0.18906  6.59974
 C  25.67242  0.68222  5.61662
 C  26.35426  1.98871  6.44452
 H  25.49397  2.50393  7.02569
 H  26.73432  2.72737  5.63598
 H  26.51689  -0.01809  5.27139
 H  25.09168  1.08063  4.70749
 H  23.91981  0.62696  7.02518
 H  25.24176  -0.61727  7.48472
 C  27.56695  1.67316  7.47979
 C  29.11413  1.56122  6.81895
 C  29.56765  -0.02033  6.46597
 H  30.60830  -0.22644  6.93017
 H  29.62016  -0.15842  5.31845
 H  28.79653  -0.76086  6.90883
 H  29.14323  2.17507  5.84411
 H  29.86550  2.00064  7.57363
 H  27.34555  0.68212  8.03521
 H  27.60523  2.52416  8.26801
 H  -23.78364  4.64995  -5.60621
 H  -22.15272  0.98231  -3.30969
 H  23.88380  -4.10884  3.86778
 H  21.75782  -1.07498  6.63570
*
