# ================================================================
# Orca input file made by Matty Jones
# ================================================================
! ZINDO/S 
! NOPOP
! NOMOPRINT
* xyz 0   1
 C  -13.65320  -11.93169  -7.70854
 C  -12.45593  -11.56683  -8.32605
 C  -11.28452  -12.00826  -7.63526
 C  -11.55819  -12.72531  -6.46639
 S  -13.21185  -12.77471  -6.35074
 H  -12.19141  -11.58842  -9.48338
 C  -9.82910  -11.63442  -8.24598
 C  -9.45827  -10.02057  -8.75104
 C  -9.81512  -9.40857  -10.31392
 H  -9.37683  -10.15575  -11.07679
 H  -10.96498  -9.39319  -10.41415
 H  -10.00953  -9.33109  -8.01036
 H  -8.32014  -9.89877  -8.61513
 H  -9.63695  -12.29053  -9.18157
 H  -9.00802  -11.88842  -7.45554
 C  -9.22907  -7.91208  -10.62963
 C  -9.80130  -7.04931  -11.98455
 C  -9.05977  -7.10885  -13.49849
 H  -7.91221  -7.14928  -13.36764
 H  -9.34735  -6.15506  -14.09189
 H  -9.42750  -8.04263  -14.07221
 H  -10.90318  -7.35043  -12.13204
 H  -9.73064  -5.94980  -11.66800
 H  -9.42909  -7.23953  -9.70946
 H  -8.08256  -7.99761  -10.77476
 C  14.56357  9.83212  8.52952
 C  13.23206  10.10593  8.84578
 C  13.01112  10.41565  10.22402
 C  14.17403  10.38626  10.99996
 S  15.39721  9.98427  9.95465
 H  12.38752  10.11944  8.07727
 C  11.63612  10.79436  11.02725
 C  10.09071  10.06102  11.36443
 C  8.48661  9.87486  10.77656
 H  7.79678  10.08223  11.68880
 H  8.33401  10.73406  10.02042
 H  10.41773  8.95592  11.50543
 H  9.87692  10.51368  12.41766
 H  11.26423  11.78897  10.52161
 H  11.96900  11.09095  12.11199
 C  8.02777  8.45458  10.12749
 C  7.70405  8.36521  8.47665
 C  7.63437  9.84152  7.68188
 H  8.67737  10.34070  7.70018
 H  6.86034  10.52439  8.20677
 H  7.30665  9.66569  6.58540
 H  8.53229  7.73157  7.98424
 H  6.68758  7.83622  8.33933
 H  8.84915  7.66507  10.34560
 H  7.05740  8.11020  10.66610
 H  -14.63719  -11.71546  -8.03811
 H  -10.85576  -13.14866  -5.79485
 H  14.95858  9.58005  7.57872
 H  14.25651  10.58030  12.03878
*
