# ================================================================
# Orca input file made by Matty Jones
# ================================================================
! ZINDO/S 
! NOPOP
! NOMOPRINT
* xyz 0   1
 C  -7.67215  -31.49584  -10.91062
 C  -6.52554  -30.74829  -10.63795
 C  -5.58505  -31.41053  -9.78872
 C  -5.99109  -32.68744  -9.38879
 S  -7.47153  -32.92652  -10.09699
 H  -6.34306  -29.69857  -11.05259
 C  -4.17829  -30.67874  -9.38717
 C  -3.40205  -30.58625  -7.84130
 C  -1.82244  -29.86321  -7.76486
 H  -1.36600  -30.13557  -8.79727
 H  -1.29010  -30.51607  -6.96181
 H  -3.30181  -31.64864  -7.43372
 H  -4.08058  -29.95588  -7.16228
 H  -3.34727  -31.15386  -10.05974
 H  -4.26689  -29.55554  -9.69243
 C  -1.34302  -28.32307  -7.45309
 C  -0.71806  -27.88636  -5.92657
 C  0.95962  -27.99555  -5.72874
 H  1.30940  -29.06406  -5.99816
 H  1.22607  -27.76582  -4.62571
 H  1.48095  -27.22694  -6.41859
 H  -1.00804  -26.78624  -5.73910
 H  -1.21147  -28.55790  -5.13377
 H  -2.24794  -27.62456  -7.63457
 H  -0.51210  -28.04889  -8.21358
 C  5.37594  33.83950  6.72700
 C  4.69132  32.76344  7.29382
 C  5.44236  32.04587  8.27632
 C  6.72651  32.55791  8.48636
 S  6.86317  33.85329  7.45984
 H  3.64363  32.42865  6.98286
 C  4.86110  30.78161  9.08580
 C  4.03836  29.46037  8.39249
 C  2.34543  29.44298  8.22844
 H  1.88070  29.68646  9.25578
 H  2.04844  30.25808  7.46909
 H  4.30682  28.54142  9.03891
 H  4.47250  29.32126  7.33337
 H  4.12679  31.18202  9.90667
 H  5.73974  30.25624  9.64046
 C  1.83258  27.97976  7.71116
 C  0.16750  27.68956  7.60900
 C  -0.51216  26.99162  8.98457
 H  -1.41104  26.33238  8.67146
 H  -0.87453  27.82762  9.69777
 H  0.27636  26.33723  9.52158
 H  -0.01248  26.97272  6.72430
 H  -0.36510  28.69094  7.40945
 H  2.26197  27.79736  6.65057
 H  2.26367  27.17149  8.42104
 H  -8.49727  -31.20935  -11.51121
 H  -5.46318  -33.36147  -8.76381
 H  5.02013  34.50715  5.98454
 H  7.45920  32.19424  9.16054
*
