# ================================================================
# Orca input file made by Matty Jones
# ================================================================
! ZINDO/S 
! NOPOP
! NOMOPRINT
* xyz 0   1
 C  11.87663  4.72239  4.89560
 C  13.07390  5.08725  4.27809
 C  14.24532  4.64582  4.96888
 C  13.97164  3.92878  6.13776
 S  12.31798  3.87938  6.25341
 H  13.33842  5.06566  3.12077
 C  15.70073  5.01966  4.35817
 C  16.07156  6.63351  3.85311
 C  15.71471  7.24551  2.29023
 H  16.15300  6.49833  1.52736
 H  14.56485  7.26089  2.18999
 H  15.52030  7.32300  4.59379
 H  17.20969  6.75531  3.98902
 H  15.89289  4.36355  3.42258
 H  16.52181  4.76566  5.14860
 C  16.30076  8.74201  1.97451
 C  15.72853  9.60477  0.61960
 C  16.47006  9.54524  -0.89434
 H  17.61762  9.50480  -0.76350
 H  16.18248  10.49902  -1.48775
 H  16.10233  8.61145  -1.46806
 H  14.62665  9.30365  0.47211
 H  15.79919  10.70428  0.93615
 H  16.10074  9.41455  2.89468
 H  17.44727  8.65647  1.82939
 C  -17.17680  -10.25407  -5.87671
 C  -16.05756  -9.79628  -5.17983
 C  -16.28163  -8.59270  -4.44128
 C  -17.58437  -8.09760  -4.55557
 S  -18.37925  -9.16012  -5.55038
 H  -15.04439  -10.32133  -5.22040
 C  -15.02285  -8.01165  -3.61398
 C  -14.48045  -6.41546  -3.83986
 C  -15.15496  -5.14133  -2.97943
 H  -16.11100  -4.81569  -3.53430
 H  -14.39516  -4.26325  -3.07365
 H  -13.34959  -6.42077  -3.59908
 H  -14.61822  -6.17842  -4.96309
 H  -15.23607  -8.13965  -2.47551
 H  -14.08107  -8.66561  -3.85067
 C  -15.45278  -5.37179  -1.39685
 C  -14.30878  -4.75696  -0.31309
 C  -13.07103  -5.78817  0.16437
 H  -13.24642  -6.84381  -0.27330
 H  -13.05216  -5.84593  1.32117
 H  -12.05944  -5.37209  -0.21519
 H  -13.83022  -3.82508  -0.79498
 H  -14.88264  -4.43681  0.63696
 H  -15.55118  -6.49970  -1.16849
 H  -16.46297  -4.86626  -1.13482
 H  10.89264  4.93863  4.56603
 H  14.67407  3.50543  6.80930
 H  -17.24395  -11.11878  -6.48610
 H  -17.98085  -7.22572  -4.10144
*
