# ================================================================
# Orca input file made by Matty Jones
# ================================================================
! ZINDO/S 
! NOPOP
! NOMOPRINT
* xyz 0   1
 C  -22.33189  -0.91976  -7.16151
 C  -21.10932  -0.26620  -6.99999
 C  -20.22992  -0.89557  -6.06468
 C  -20.76076  -2.05194  -5.48473
 S  -22.26902  -2.23228  -6.15035
 H  -20.92277  0.89156  -6.89491
 C  -18.75386  -0.37737  -5.65592
 C  -18.54845  1.21371  -5.09561
 C  -16.93583  1.67699  -4.78509
 H  -16.93853  2.83023  -4.95466
 H  -16.32137  1.21080  -5.64458
 H  -18.97628  1.92915  -5.88651
 H  -19.13469  1.31533  -4.11070
 H  -18.31847  -1.05914  -4.81384
 H  -18.05212  -0.47858  -6.58521
 C  -16.17363  1.43426  -3.36174
 C  -14.51990  1.84495  -3.39295
 C  -14.10648  3.43554  -3.02965
 H  -12.95213  3.52605  -2.99240
 H  -14.55188  3.72865  -2.00387
 H  -14.52117  4.13438  -3.85318
 H  -13.98123  1.15788  -2.63995
 H  -14.11460  1.64634  -4.45255
 H  -16.24831  0.32012  -3.06686
 H  -16.67158  2.07299  -2.53846
 C  21.64205  -1.71963  2.31515
 C  20.27934  -1.95909  2.49836
 C  19.61492  -0.97324  3.29268
 C  20.45724  0.04982  3.73893
 S  21.95862  -0.31408  3.13571
 H  19.73008  -2.85827  2.05681
 C  18.04951  -0.96423  3.68141
 C  17.34430  -2.25513  4.51149
 C  17.46239  -2.00037  6.18060
 H  17.60197  -3.03764  6.67637
 H  18.41594  -1.37384  6.37873
 H  16.23403  -2.32937  4.22162
 H  17.89144  -3.22803  4.24210
 H  17.80432  -0.00955  4.30149
 H  17.43105  -0.87751  2.68906
 C  16.18174  -1.26062  6.86120
 C  16.18217  0.42196  6.72450
 C  15.03065  1.13152  5.71495
 H  15.56264  1.83992  4.96910
 H  14.26531  1.74766  6.32414
 H  14.46993  0.30470  5.12998
 H  16.18164  0.77953  7.80880
 H  17.19261  0.70700  6.25352
 H  15.20700  -1.65488  6.38196
 H  16.16019  -1.50843  7.99294
 H  -23.13191  -0.63671  -7.79670
 H  -20.29638  -2.68146  -4.76944
 H  22.32964  -2.31153  1.76699
 H  20.19174  0.88342  4.33745
*
