# ================================================================
# Orca input file made by Matty Jones
# ================================================================
! ZINDO/S 
! NOPOP
! NOMOPRINT
* xyz 0   1
 C  18.49508  4.11037  -13.86688
 C  19.64170  4.85792  -13.59422
 C  20.58218  4.19568  -12.74499
 C  20.17615  2.91876  -12.34505
 S  18.69571  2.67968  -13.05326
 H  19.82417  5.90764  -14.00885
 C  21.98894  4.92746  -12.34343
 C  22.76518  5.01995  -10.79756
 C  24.34479  5.74299  -10.72112
 H  24.80124  5.47063  -11.75354
 H  24.87714  5.09014  -9.91808
 H  22.86542  3.95757  -10.38999
 H  22.08665  5.65033  -10.11855
 H  22.81996  4.45234  -13.01601
 H  21.90035  6.05066  -12.64870
 C  24.82422  7.28313  -10.40936
 C  25.44917  7.71984  -8.88284
 C  27.12686  7.61066  -8.68501
 H  27.47663  6.54214  -8.95443
 H  27.39331  7.84039  -7.58198
 H  27.64818  8.37926  -9.37486
 H  25.15920  8.81996  -8.69537
 H  24.95577  7.04830  -8.09003
 H  23.91930  7.98164  -10.59084
 H  25.65513  7.55731  -11.16985
 C  -19.39235  -3.55152  9.45227
 C  -20.31447  -4.21857  10.26014
 C  -21.06457  -3.35922  11.12218
 C  -20.73308  -2.00677  10.99437
 S  -19.54605  -1.94626  9.83777
 H  -20.25335  -5.33922  10.45613
 C  -22.18893  -3.94662  12.13609
 C  -23.35223  -4.96876  11.39281
 C  -24.67925  -5.87810  11.98654
 H  -24.98555  -5.38999  12.98879
 H  -25.54071  -5.74017  11.22733
 H  -22.71834  -5.74871  10.87667
 H  -23.83814  -4.27631  10.59728
 H  -22.78229  -3.08031  12.63313
 H  -21.67781  -4.56752  12.97303
 C  -24.45385  -7.47864  12.23418
 C  -24.55354  -8.46137  10.84705
 C  -26.04873  -9.04303  10.33350
 H  -25.88386  -9.98262  9.67616
 H  -26.57818  -8.22591  9.70732
 H  -26.69800  -9.31788  11.24905
 H  -23.88888  -9.38391  11.04943
 H  -24.11997  -7.85722  9.97469
 H  -25.25854  -7.86417  12.97023
 H  -23.41031  -7.65188  12.69868
 H  17.66997  4.39685  -14.46748
 H  20.70406  2.24473  -11.72008
 H  -18.73282  -3.98067  8.74202
 H  -21.15265  -1.19103  11.52552
*
