# ================================================================
# Orca input file made by Matty Jones
# ================================================================
! ZINDO/S 
! NOPOP
! NOMOPRINT
* xyz 0   1
 C  -5.19893  11.40495  36.54553
 C  -4.86472  10.24136  35.85109
 C  -3.58324  9.70618  36.19115
 C  -2.90212  10.45093  37.15901
 S  -3.90715  11.71462  37.53774
 H  -5.47318  9.97639  34.92364
 C  -3.20081  8.36093  35.38636
 C  -3.86079  8.45111  33.78360
 C  -5.46482  7.80744  33.85137
 H  -5.23208  6.66393  33.74008
 H  -5.81611  7.94444  34.94938
 H  -3.88317  9.53144  33.41028
 H  -3.22775  7.79840  33.08667
 H  -3.62336  7.42195  35.91150
 H  -2.05075  8.25726  35.28072
 C  -6.80221  8.02059  32.91544
 C  -7.08455  9.19486  31.72225
 C  -8.04486  10.50587  32.18134
 H  -9.09263  10.39454  31.69977
 H  -7.55607  11.48735  31.81155
 H  -8.15066  10.53360  33.33229
 H  -7.61169  8.67299  30.83909
 H  -6.06463  9.60183  31.37777
 H  -6.98146  7.00935  32.36847
 H  -7.68631  8.16509  33.66167
 C  7.24614  -5.14382  -35.20372
 C  6.64391  -6.39999  -35.28889
 C  7.18072  -7.36745  -34.38328
 C  8.21205  -6.87271  -33.57896
 S  8.40277  -5.28662  -34.02435
 H  5.80236  -6.65918  -36.01630
 C  6.56641  -8.86983  -34.39086
 C  6.21388  -9.73621  -32.96399
 C  5.55969  -11.30161  -33.14012
 H  6.01437  -11.72402  -34.11868
 H  5.98528  -11.91899  -32.25438
 H  7.19614  -9.89180  -32.38973
 H  5.48043  -9.10926  -32.34043
 H  7.30903  -9.56087  -34.97692
 H  5.55987  -8.86065  -34.98208
 C  3.94613  -11.55205  -33.18317
 C  3.19428  -11.68914  -34.69428
 C  2.52919  -10.27914  -35.32028
 H  1.57618  -10.54626  -35.92215
 H  3.29644  -9.76694  -36.01814
 H  2.24918  -9.56287  -34.45589
 H  3.97989  -12.07537  -35.44478
 H  2.34912  -12.46869  -34.59553
 H  3.71030  -12.53379  -32.61349
 H  3.42402  -10.67997  -32.62769
 H  -6.09060  11.97130  36.45724
 H  -1.94403  10.24988  37.56551
 H  7.01321  -4.28052  -35.77298
 H  8.75770  -7.40085  -32.83941
*
