# ================================================================
# Orca input file made by Matty Jones
# ================================================================
! ZINDO/S 
! NOPOP
! NOMOPRINT
* xyz 0   1
 C  -16.90482  -5.83242  26.99620
 C  -16.00214  -5.07998  27.74913
 C  -15.14188  -5.86192  28.58148
 C  -15.36642  -7.23875  28.48531
 S  -16.60015  -7.41372  27.39090
 H  -15.40546  -4.11302  27.43214
 C  -13.93432  -5.48797  29.61621
 C  -12.49897  -4.64768  29.22573
 C  -12.24564  -3.00107  29.43322
 H  -11.70298  -2.59633  28.49591
 H  -13.26800  -2.47645  29.53540
 H  -11.66526  -5.18949  29.82074
 H  -12.32589  -4.85805  28.09999
 H  -14.40300  -4.82470  30.45560
 H  -13.54813  -6.45399  30.13328
 C  -11.32884  -2.71971  30.75778
 C  -12.16050  -2.88506  32.21503
 C  -13.05365  -1.52451  32.62411
 H  -12.66769  -0.60805  32.03216
 H  -12.95508  -1.32335  33.75911
 H  -14.16534  -1.71397  32.35901
 H  -12.86477  -3.79291  32.14105
 H  -11.38515  -3.07070  33.04870
 H  -10.43778  -3.45807  30.77867
 H  -10.90512  -1.64407  30.70929
 C  17.75743  4.19729  -31.13684
 C  16.42592  4.47109  -30.82057
 C  16.20498  4.78081  -29.44234
 C  17.36790  4.75143  -28.66639
 S  18.59107  4.34944  -29.71171
 H  15.58138  4.48460  -31.58909
 C  14.82998  5.15953  -28.63911
 C  13.28457  4.42619  -28.30193
 C  11.68047  4.24003  -28.88980
 H  10.99064  4.44740  -27.97756
 H  11.52787  5.09923  -29.64594
 H  13.61160  3.32109  -28.16093
 H  13.07079  4.87884  -27.24869
 H  14.45809  6.15414  -29.14475
 H  15.16286  5.45612  -27.55437
 C  11.22164  2.81974  -29.53886
 C  10.89791  2.73038  -31.18971
 C  10.82824  4.20668  -31.98448
 H  11.87124  4.70586  -31.96618
 H  10.05420  4.88956  -31.45958
 H  10.50051  4.03085  -33.08096
 H  11.72616  2.09674  -31.68212
 H  9.88145  2.20138  -31.32703
 H  12.04302  2.03024  -29.32075
 H  10.25126  2.47537  -29.00026
 H  -17.63187  -5.46949  26.31555
 H  -14.85514  -8.00929  29.00344
 H  18.15245  3.94522  -32.08764
 H  17.45038  4.94546  -27.62757
*
