# ================================================================
# Orca input file made by Matty Jones
# ================================================================
! ZINDO/S 
! NOPOP
! NOMOPRINT
* xyz 0   1
 C  22.94827  4.20101  -2.53606
 C  22.34604  2.94484  -2.62122
 C  22.88286  1.97738  -1.71561
 C  23.91418  2.47212  -0.91129
 S  24.10490  4.05821  -1.35669
 H  21.50449  2.68566  -3.34863
 C  22.26854  0.47500  -1.72320
 C  21.91601  -0.39138  -0.29633
 C  21.26183  -1.95677  -0.47245
 H  21.71651  -2.37919  -1.45102
 H  21.68741  -2.57416  0.41328
 H  22.89827  -0.54697  0.27794
 H  21.18256  0.23557  0.32723
 H  23.01117  -0.21604  -2.30925
 H  21.26201  0.48418  -2.31441
 C  19.64826  -2.20722  -0.51551
 C  18.89642  -2.34431  -2.02661
 C  18.23132  -0.93431  -2.65261
 H  17.27831  -1.20143  -3.25449
 H  18.99857  -0.42211  -3.35047
 H  17.95131  -0.21804  -1.78822
 H  19.68203  -2.73054  -2.77712
 H  18.05126  -3.12386  -1.92786
 H  19.41243  -3.18896  0.05418
 H  19.12616  -1.33514  0.03997
 C  -16.08056  0.45155  -0.55335
 C  -17.25643  -0.14010  -0.08947
 C  -18.05977  0.71768  0.72487
 C  -17.51549  1.99308  0.90492
 S  -16.08902  1.99235  0.05899
 H  -17.56205  -1.21417  -0.32473
 C  -19.44951  0.15957  1.34365
 C  -20.96429  0.94219  1.23818
 C  -22.18727  0.15718  2.12919
 H  -21.62516  -0.46574  2.93202
 H  -22.75361  1.00999  2.67869
 H  -21.27220  0.84134  0.12260
 H  -20.99880  2.03830  1.50768
 H  -19.28643  0.01006  2.49195
 H  -19.65290  -0.89984  0.89102
 C  -23.30873  -0.81215  1.45677
 C  -24.21380  -1.61934  2.64665
 C  -25.48736  -0.75815  3.33102
 H  -25.07132  -0.05423  4.15081
 H  -26.23765  -1.50107  3.80605
 H  -26.02025  -0.13469  2.51609
 H  -23.49605  -1.93102  3.49234
 H  -24.65765  -2.56425  2.15533
 H  -24.03989  -0.18753  0.81665
 H  -22.80332  -1.60491  0.78833
 H  22.71534  5.06431  -3.10532
 H  24.45983  1.94398  -0.17175
 H  -15.33856  0.00915  -1.16760
 H  -17.92822  2.79291  1.46486
*
