# ================================================================
# Orca input file made by Matty Jones
# ================================================================
! ZINDO/S 
! NOPOP
! NOMOPRINT
* xyz 0   1
 C  17.88425  11.39972  6.71974
 C  17.19963  10.32365  7.28657
 C  17.95067  9.60609  8.26907
 C  19.23481  10.11812  8.47911
 S  19.37147  11.41350  7.45259
 H  16.15194  9.98887  6.97560
 C  17.36941  8.34183  9.07854
 C  16.54666  7.02058  8.38523
 C  14.85373  7.00320  8.22119
 H  14.38901  7.24668  9.24853
 H  14.55675  7.81830  7.46183
 H  16.81512  6.10164  9.03165
 H  16.98080  6.88147  7.32611
 H  16.63510  8.74223  9.89941
 H  18.24804  7.81646  9.63320
 C  14.34089  5.53998  7.70390
 C  12.67580  5.24978  7.60174
 C  11.99615  4.55183  8.97732
 H  11.09726  3.89259  8.66420
 H  11.63378  5.38784  9.69051
 H  12.78466  3.89744  9.51433
 H  12.49583  4.53293  6.71704
 H  12.14320  6.25116  7.40219
 H  14.77027  5.35758  6.64331
 H  14.77197  4.73171  8.41378
 C  -14.59090  -3.58374  -9.98422
 C  -14.49016  -4.71447  -9.17231
 C  -14.33711  -4.42252  -7.78105
 C  -14.31690  -3.05434  -7.49293
 S  -14.48707  -2.28864  -8.95415
 H  -14.08870  -5.68914  -9.63407
 C  -14.25834  -5.78686  -6.90194
 C  -15.59429  -6.76869  -7.50372
 C  -16.34725  -8.30769  -7.35377
 H  -17.48369  -8.12292  -7.27245
 H  -15.96255  -8.78617  -6.37908
 H  -15.36220  -6.83515  -8.63145
 H  -16.48327  -6.04521  -7.33345
 H  -14.42822  -5.58454  -5.78161
 H  -13.27149  -6.35487  -7.07753
 C  -16.05080  -9.30446  -8.61795
 C  -17.11012  -10.61883  -8.77910
 C  -16.66767  -12.01272  -7.95660
 H  -15.59914  -12.32411  -8.27294
 H  -17.41188  -12.86134  -8.21482
 H  -16.69383  -11.80722  -6.81800
 H  -17.17843  -10.87762  -9.90185
 H  -18.14855  -10.29048  -8.40185
 H  -14.97959  -9.72875  -8.52657
 H  -16.12776  -8.70678  -9.60646
 H  17.52844  12.06737  5.97729
 H  19.96750  9.75446  9.15328
 H  -14.70892  -3.55830  -11.03732
 H  -14.21430  -2.60143  -6.54007
*
