# ================================================================
# Orca input file made by Matty Jones
# ================================================================
! ZINDO/S 
! NOPOP
! NOMOPRINT
* xyz 0   1
 C  -20.49579  -10.20116  -11.72199
 C  -19.27322  -9.54761  -11.56046
 C  -18.39382  -10.17698  -10.62515
 C  -18.92466  -11.33335  -10.04521
 S  -20.43292  -11.51368  -10.71082
 H  -19.08667  -8.38985  -11.45538
 C  -16.91776  -9.65878  -10.21640
 C  -16.71235  -8.06769  -9.65608
 C  -15.09973  -7.60442  -9.34556
 H  -15.10243  -6.45117  -9.51514
 H  -14.48527  -8.07060  -10.20505
 H  -17.14018  -7.35226  -10.44699
 H  -17.29859  -7.96607  -8.67117
 H  -16.48237  -10.34054  -9.37431
 H  -16.21602  -9.75999  -11.14568
 C  -14.33753  -7.84715  -7.92221
 C  -12.68380  -7.43646  -7.95343
 C  -12.27038  -5.84587  -7.59012
 H  -11.11603  -5.75536  -7.55287
 H  -12.71578  -5.55276  -6.56434
 H  -12.68507  -5.14702  -8.41365
 H  -12.14513  -8.12353  -7.20042
 H  -12.27850  -7.63507  -9.01302
 H  -14.41221  -8.96128  -7.62733
 H  -14.83548  -7.20841  -7.09893
 C  13.68823  4.24805  7.92365
 C  14.43700  5.22201  8.58594
 C  13.65099  6.16151  9.32337
 C  12.27461  5.92821  9.24297
 S  12.10498  4.59063  8.27729
 H  15.57937  5.22496  8.61492
 C  14.32884  7.36445  10.16766
 C  15.63382  8.15251  9.45141
 C  16.41121  9.42574  10.26483
 H  16.53491  9.14246  11.37517
 H  15.76503  10.37596  10.17870
 H  16.43934  7.34669  9.26699
 H  15.27120  8.57224  8.44032
 H  13.53734  8.20203  10.35571
 H  14.69841  6.96978  11.19879
 C  17.86332  9.64725  9.55509
 C  18.80351  10.98111  9.97485
 C  18.55503  12.26354  8.91403
 H  19.29932  13.11389  9.16074
 H  17.46966  12.64758  9.02395
 H  18.72963  11.89889  7.82898
 H  18.53189  11.31746  11.04094
 H  19.91414  10.67856  9.93103
 H  17.70605  9.69402  8.40781
 H  18.51396  8.71333  9.78917
 H  -21.29581  -9.91812  -12.35717
 H  -18.46028  -11.96287  -9.32991
 H  14.05449  3.45629  7.32153
 H  11.50152  6.48890  9.70294
*
