# ================================================================
# Orca input file made by Matty Jones
# ================================================================
! ZINDO/S 
! NOPOP
! NOMOPRINT
* xyz 0   1
 C  14.27133  2.07288  2.96869
 C  15.46860  2.43775  2.35118
 C  16.64002  1.99632  3.04197
 C  16.36635  1.27927  4.21084
 S  14.71268  1.22987  4.32649
 H  15.73313  2.41616  1.19385
 C  18.09543  2.37015  2.43125
 C  18.46626  3.98401  1.92619
 C  18.10941  4.59600  0.36331
 H  18.54770  3.84883  -0.39956
 H  16.95955  4.61138  0.26308
 H  17.91500  4.67349  2.66687
 H  19.60440  4.10580  2.06210
 H  18.28759  1.71405  1.49566
 H  18.91651  2.11616  3.22169
 C  18.69547  6.09250  0.04760
 C  18.12324  6.95527  -1.30732
 C  18.86476  6.89573  -2.82126
 H  20.01233  6.85529  -2.69041
 H  18.57719  7.84952  -3.41466
 H  18.49703  5.96194  -3.39498
 H  17.02135  6.65415  -1.45481
 H  18.19389  8.05478  -0.99076
 H  18.49544  6.76504  0.96777
 H  19.84197  6.00697  -0.09753
 C  -18.80795  -6.34178  -4.70639
 C  -18.21839  -5.89214  -3.52396
 C  -19.02441  -4.97304  -2.78244
 C  -20.25664  -4.69552  -3.38237
 S  -20.28365  -5.58937  -4.77906
 H  -17.39429  -6.46819  -2.97198
 C  -18.35810  -4.42836  -1.42492
 C  -16.75296  -3.94571  -1.77914
 C  -15.62537  -3.39494  -0.65721
 H  -15.69273  -2.23821  -0.65215
 H  -14.58175  -3.68853  -1.07436
 H  -16.22888  -4.84366  -2.28191
 H  -16.86537  -3.10030  -2.56155
 H  -18.93562  -3.50655  -1.02905
 H  -18.32698  -5.25723  -0.61803
 C  -15.73105  -3.94284  0.86854
 C  -16.63948  -2.99784  1.92643
 C  -18.22616  -3.50407  2.13712
 H  -18.77546  -3.53980  1.12476
 H  -18.76718  -2.76010  2.84126
 H  -18.22433  -4.55730  2.61908
 H  -16.11659  -3.00662  2.95425
 H  -16.66117  -1.91790  1.52076
 H  -14.66411  -4.02612  1.31384
 H  -16.20079  -5.00204  0.85966
 H  13.28734  2.28912  2.63912
 H  17.06877  0.85592  4.88239
 H  -18.39860  -7.02105  -5.40968
 H  -21.01473  -4.04918  -3.02027
*
