# ================================================================
# Orca input file made by Matty Jones
# ================================================================
! ZINDO/S 
! NOPOP
! NOMOPRINT
* xyz 0   1
 C  -2.36723  2.42276  -3.01511
 C  -1.14467  3.07632  -2.85359
 C  -0.26526  2.44695  -1.91828
 C  -0.79611  1.29058  -1.33833
 S  -2.30437  1.11024  -2.00395
 H  -0.95812  4.23408  -2.74851
 C  1.21080  2.96515  -1.50952
 C  1.41621  4.55623  -0.94921
 C  3.02883  5.01951  -0.63869
 H  3.02613  6.17275  -0.80826
 H  3.64329  4.55332  -1.49818
 H  0.98838  5.27166  -1.74011
 H  0.82997  4.65785  0.03570
 H  1.64618  2.28338  -0.66744
 H  1.91253  2.86393  -2.43881
 C  3.79103  4.77678  0.78467
 C  5.44476  5.18747  0.75345
 C  5.85818  6.77805  1.11675
 H  7.01252  6.86857  1.15400
 H  5.41277  7.07116  2.14253
 H  5.44349  7.47690  0.29322
 H  5.98343  4.50040  1.50645
 H  5.85006  4.98886  -0.30615
 H  3.71634  3.66264  1.07954
 H  3.29307  5.41551  1.60794
 C  -0.32657  0.04469  -0.38150
 C  -0.92880  -1.21148  -0.46667
 C  -0.39199  -2.17894  0.43894
 C  0.63934  -1.68420  1.24326
 S  0.83006  -0.09811  0.79787
 H  -1.77035  -1.47067  -1.19408
 C  -1.00630  -3.68133  0.43136
 C  -1.35883  -4.54770  1.85823
 C  -2.01302  -6.11310  1.68210
 H  -1.55834  -6.53551  0.70354
 H  -1.58743  -6.73048  2.56784
 H  -0.37657  -4.70329  2.43249
 H  -2.09228  -3.92075  2.48179
 H  -0.26367  -4.37236  -0.15470
 H  -2.01283  -3.67214  -0.15986
 C  -3.62658  -6.36354  1.63905
 C  -4.37842  -6.50063  0.12794
 C  -5.04352  -5.09063  -0.49806
 H  -5.99653  -5.35776  -1.09993
 H  -4.27627  -4.57844  -1.19592
 H  -5.32353  -4.37436  0.36633
 H  -3.59281  -6.88686  -0.62256
 H  -5.22358  -7.28018  0.22669
 H  -3.86241  -7.34529  2.20873
 H  -4.14869  -5.49146  2.19453
 H  -3.16725  2.70581  -3.65030
 H  1.18499  -2.21234  1.98281
*
