# ================================================================
# Orca input file made by Matty Jones
# ================================================================
! ZINDO/S 
! NOPOP
! NOMOPRINT
* xyz 0   1
 C  15.51875  13.81933  4.05679
 C  14.91651  12.56316  3.97163
 C  15.45333  11.59570  4.87723
 C  16.48465  12.09044  5.68155
 S  16.67537  13.67653  5.23616
 H  14.07496  12.30397  3.24422
 C  14.83901  10.09331  4.86965
 C  14.48648  9.22693  6.29652
 C  13.83230  7.66154  6.12039
 H  14.28698  7.23912  5.14183
 H  14.25788  7.04416  7.00613
 H  15.46874  9.07134  6.87079
 H  13.75303  9.85388  6.92008
 H  15.58164  9.40228  4.28359
 H  13.83248  10.10249  4.27843
 C  12.21874  7.41109  6.07734
 C  11.46689  7.27401  4.56624
 C  10.80179  8.68401  3.94024
 H  9.84878  8.41688  3.33836
 H  11.56905  9.19620  3.24237
 H  10.52179  9.40027  4.80462
 H  12.25250  6.88778  3.81573
 H  10.62173  6.49445  4.66499
 H  11.98291  6.42935  6.64702
 H  11.69663  8.28317  6.63282
 C  -12.67853  -5.78483  -6.89408
 C  -12.57779  -6.91555  -6.08216
 C  -12.42474  -6.62360  -4.69090
 C  -12.40453  -5.25543  -4.40278
 S  -12.57469  -4.48973  -5.86401
 H  -12.17633  -7.89023  -6.54393
 C  -12.34597  -7.98795  -3.81180
 C  -13.68192  -8.96977  -4.41358
 C  -14.43487  -10.50877  -4.26363
 H  -15.57131  -10.32401  -4.18231
 H  -14.05017  -10.98726  -3.28894
 H  -13.44983  -9.03624  -5.54130
 H  -14.57090  -8.24630  -4.24331
 H  -12.51585  -7.78563  -2.69146
 H  -11.35912  -8.55596  -3.98738
 C  -14.13843  -11.50555  -5.52781
 C  -15.19775  -12.81992  -5.68896
 C  -14.75530  -14.21381  -4.86645
 H  -13.68677  -14.52519  -5.18280
 H  -15.49950  -15.06242  -5.12468
 H  -14.78146  -14.00830  -3.72785
 H  -15.26606  -13.07870  -6.81171
 H  -16.23618  -12.49156  -5.31170
 H  -13.06722  -11.92983  -5.43643
 H  -14.21538  -10.90787  -6.51632
 H  15.28581  14.68262  3.48753
 H  17.03030  11.56229  6.42110
 H  -12.79654  -5.75938  -7.94718
 H  -12.30193  -4.80251  -3.44992
*
