# ================================================================
# Orca input file made by Matty Jones
# ================================================================
! ZINDO/S 
! NOPOP
! NOMOPRINT
* xyz 0   1
 C  16.67973  -0.03216  -15.65665
 C  17.82635  0.71538  -15.38399
 C  18.76683  0.05314  -14.53476
 C  18.36080  -1.22377  -14.13482
 S  16.88036  -1.46285  -14.84303
 H  18.00882  1.76510  -15.79862
 C  20.17360  0.78493  -14.13320
 C  20.94983  0.87742  -12.58733
 C  22.52944  1.60046  -12.51089
 H  22.98589  1.32810  -13.54330
 H  23.06179  0.94760  -11.70785
 H  21.05007  -0.18497  -12.17975
 H  20.27130  1.50779  -11.90831
 H  21.00461  0.30981  -14.80578
 H  20.08500  1.90813  -14.43846
 C  23.00887  3.14060  -12.19912
 C  23.63382  3.57731  -10.67261
 C  25.31151  3.46812  -10.47477
 H  25.66128  2.39961  -10.74420
 H  25.57796  3.69785  -9.37175
 H  25.83283  4.23673  -11.16462
 H  23.34385  4.67743  -10.48513
 H  23.14042  2.90577  -9.87980
 H  22.10395  3.83911  -12.38061
 H  23.83978  3.41478  -12.95962
 C  -23.15765  -4.95251  10.16465
 C  -22.57621  -4.29069  11.24717
 C  -23.41842  -3.30470  11.84948
 C  -24.67120  -3.18736  11.23950
 S  -24.67092  -4.29416  10.00441
 H  -21.51863  -4.50145  11.62385
 C  -23.00164  -2.37070  13.10539
 C  -21.68705  -1.32435  12.87132
 C  -21.27191  -0.27879  14.14253
 H  -22.25084  0.19892  14.53250
 H  -20.80241  -0.90316  14.99068
 H  -20.76283  -1.96610  12.62983
 H  -21.95246  -0.66559  11.96254
 H  -23.89342  -1.74812  13.50797
 H  -22.67000  -3.07336  13.98178
 C  -20.25515  0.90311  13.65773
 C  -18.59174  0.61762  13.71131
 C  -18.14223  -0.83741  14.41747
 H  -16.99849  -0.97779  14.30447
 H  -18.69174  -1.71087  13.89637
 H  -18.41843  -0.81514  15.54143
 H  -18.19955  0.61917  12.62565
 H  -18.09384  1.47701  14.29678
 H  -20.50862  1.18543  12.56240
 H  -20.44665  1.83713  14.31864
 H  15.85462  0.25432  -16.25724
 H  18.88871  -1.89780  -13.50984
 H  -22.72337  -5.71521  9.57027
 H  -25.45662  -2.52887  11.50990
*
