# ================================================================
# Orca input file made by Matty Jones
# ================================================================
! ZINDO/S 
! NOPOP
! NOMOPRINT
* xyz 0   1
 C  -12.40234  -33.45962  -11.72062
 C  -11.25573  -32.71207  -11.44796
 C  -10.31524  -33.37431  -10.59873
 C  -10.72128  -34.65122  -10.19879
 S  -12.20172  -34.89030  -10.90700
 H  -11.07326  -31.66235  -11.86259
 C  -8.90848  -32.64253  -10.19717
 C  -8.13225  -32.55004  -8.65130
 C  -6.55264  -31.82700  -8.57486
 H  -6.09619  -32.09936  -9.60727
 H  -6.02029  -32.47985  -7.77182
 H  -8.03200  -33.61242  -8.24372
 H  -8.81077  -31.91966  -7.97228
 H  -8.07747  -33.11765  -10.86975
 H  -8.99708  -31.51933  -10.50243
 C  -6.07321  -30.28686  -8.26309
 C  -5.44825  -29.85015  -6.73658
 C  -3.77057  -29.95933  -6.53874
 H  -3.42079  -31.02785  -6.80817
 H  -3.50412  -29.72960  -5.43572
 H  -3.24924  -29.19073  -7.22859
 H  -5.73823  -28.75003  -6.54910
 H  -5.94166  -30.52168  -5.94377
 H  -6.97813  -29.58835  -8.44458
 H  -5.24230  -30.01268  -9.02359
 C  3.10355  30.18396  8.85785
 C  4.26365  30.94304  9.01865
 C  5.12505  30.47920  10.06129
 C  4.64270  29.34814  10.72715
 S  3.19617  28.98660  10.00103
 H  4.44645  31.90970  8.44485
 C  6.47726  31.32557  10.29101
 C  7.29702  31.67445  8.83252
 C  8.57201  32.77584  8.98828
 H  8.24682  33.47824  9.85832
 H  8.51375  33.40479  8.00715
 H  7.73239  30.68083  8.44265
 H  6.55836  32.10015  8.06339
 H  6.24227  32.32826  10.81241
 H  7.22116  30.72457  10.95836
 C  10.14173  32.42810  9.21963
 C  11.06736  32.46335  7.80266
 C  11.61744  34.01200  7.41729
 H  10.78330  34.78166  7.64281
 H  11.88540  34.05030  6.29226
 H  12.55418  34.25582  8.05034
 H  11.98647  31.78654  7.95876
 H  10.43288  32.06514  6.93052
 H  10.24602  31.37499  9.68316
 H  10.59880  33.20182  9.94922
 H  -13.22746  -33.17313  -12.32121
 H  -10.19337  -35.32525  -9.57381
 H  2.32700  30.34002  8.15342
 H  5.10486  28.83025  11.52828
*
