# ================================================================
# Orca input file made by Matty Jones
# ================================================================
! ZINDO/S 
! NOPOP
! NOMOPRINT
* xyz 0   1
 C  24.27779  -5.21842  -3.85984
 C  25.47507  -4.85356  -4.47735
 C  26.64648  -5.29499  -3.78656
 C  26.37281  -6.01204  -2.61768
 S  24.71914  -6.06144  -2.50203
 H  25.73959  -4.87515  -5.63467
 C  28.10189  -4.92115  -4.39728
 C  28.47273  -3.30730  -4.90233
 C  28.11588  -2.69530  -6.46521
 H  28.55417  -3.44248  -7.22808
 H  26.96601  -2.67992  -6.56545
 H  27.92147  -2.61781  -4.16166
 H  29.61086  -3.18550  -4.76642
 H  28.29405  -5.57726  -5.33286
 H  28.92298  -5.17515  -3.60684
 C  28.70193  -1.19880  -6.78093
 C  28.12970  -0.33604  -8.13585
 C  28.87122  -0.39557  -9.64978
 H  30.01879  -0.43601  -9.51894
 H  28.58365  0.55821  -10.24319
 H  28.50350  -1.32936  -10.22350
 H  27.02781  -0.63716  -8.28333
 H  28.20036  0.76347  -7.81929
 H  28.50190  -0.52626  -5.86076
 H  29.84843  -1.28434  -6.92605
 C  -23.87756  5.21268  4.26483
 C  -24.79968  4.54563  5.07269
 C  -25.54979  5.40498  5.93474
 C  -25.21830  6.75742  5.80693
 S  -24.03127  6.81794  4.65033
 H  -24.73857  3.42498  5.26869
 C  -26.67414  4.81757  6.94865
 C  -27.83745  3.79544  6.20537
 C  -29.16446  2.88610  6.79910
 H  -29.47076  3.37420  7.80135
 H  -30.02593  3.02402  6.03989
 H  -27.20355  3.01549  5.68922
 H  -28.32336  4.48789  5.40983
 H  -27.26751  5.68388  7.44569
 H  -26.16303  4.19667  7.78559
 C  -28.93906  1.28556  7.04674
 C  -29.03876  0.30283  5.65961
 C  -30.53395  -0.27883  5.14606
 H  -30.36908  -1.21843  4.48872
 H  -31.06340  0.53828  4.51988
 H  -31.18321  -0.55368  6.06161
 H  -28.37409  -0.61972  5.86198
 H  -28.60519  0.90698  4.78724
 H  -29.74375  0.90003  7.78278
 H  -27.89552  1.11232  7.51124
 H  23.29381  -5.00219  -4.18941
 H  27.07524  -6.43538  -1.94614
 H  -23.21803  4.78353  3.55458
 H  -25.63787  7.57317  6.33808
*
