# ================================================================
# Orca input file made by Matty Jones
# ================================================================
! ZINDO/S 
! NOPOP
! NOMOPRINT
* xyz 0   1
 C  13.37922  14.43061  -5.27833
 C  13.71343  13.26702  -5.97277
 C  14.99492  12.73183  -5.63271
 C  15.67603  13.47658  -4.66485
 S  14.67101  14.74027  -4.28611
 H  13.10497  13.00205  -6.90022
 C  15.37735  11.38659  -6.43750
 C  14.71736  11.47677  -8.04025
 C  13.11334  10.83310  -7.97249
 H  13.34607  9.68958  -8.08378
 H  12.76204  10.97010  -6.87448
 H  14.69499  12.55709  -8.41357
 H  15.35041  10.82406  -8.73718
 H  14.95480  10.44761  -5.91235
 H  16.52741  11.28291  -6.54314
 C  11.77594  11.04625  -8.90842
 C  11.49360  12.22051  -10.10161
 C  10.53329  13.53152  -9.64252
 H  9.48552  13.42020  -10.12409
 H  11.02208  14.51300  -10.01230
 H  10.42749  13.55925  -8.49157
 H  10.96646  11.69865  -10.98476
 H  12.51352  12.62749  -10.44609
 H  11.59669  10.03501  -9.45539
 H  10.89185  11.19075  -8.16219
 C  -8.54896  -11.21438  5.88783
 C  -9.58018  -12.05200  6.31545
 C  -10.65644  -11.36913  6.96323
 C  -10.47413  -9.98531  7.04755
 S  -9.01150  -9.68373  6.32632
 H  -9.56357  -13.18198  6.15354
 C  -11.83145  -12.36868  7.44269
 C  -13.45182  -12.19022  7.01752
 C  -14.50242  -11.34631  8.00638
 H  -13.92458  -10.49207  8.51926
 H  -15.34590  -10.89978  7.35533
 H  -13.46000  -11.66010  5.98748
 H  -13.87896  -13.25545  6.87799
 H  -11.83494  -12.36777  8.61485
 H  -11.56574  -13.46225  7.11892
 C  -15.13139  -12.33867  9.14082
 C  -16.46889  -13.27773  8.69529
 C  -16.11700  -14.84417  8.17977
 H  -15.38152  -15.33522  8.92630
 H  -15.64332  -14.81205  7.12588
 H  -17.09763  -15.45851  8.14473
 H  -17.01548  -12.73793  7.83650
 H  -17.16699  -13.35366  9.60892
 H  -14.30737  -13.07254  9.49448
 H  -15.46047  -11.69720  10.04693
 H  12.48756  14.99695  -5.36662
 H  16.63412  13.27554  -4.25835
 H  -7.65794  -11.49714  5.38810
 H  -11.13287  -9.27729  7.48158
*
