# ================================================================
# Orca input file made by Matty Jones
# ================================================================
! ZINDO/S 
! NOPOP
! NOMOPRINT
* xyz 0   1
 C  -7.44338  7.43318  31.15281
 C  -6.24611  7.79804  30.53530
 C  -5.07469  7.35661  31.22609
 C  -5.34836  6.63957  32.39496
 S  -7.00203  6.59017  32.51061
 H  -5.98158  7.77645  29.37797
 C  -3.61928  7.73045  30.61537
 C  -3.24845  9.34430  30.11031
 C  -3.60530  9.95630  28.54743
 H  -3.16701  9.20912  27.78456
 H  -4.75516  9.97168  28.44720
 H  -3.79971  10.03379  30.85099
 H  -2.11031  9.46610  30.24622
 H  -3.42712  7.07434  29.67978
 H  -2.79820  7.47645  31.40581
 C  -3.01924  11.45280  28.23172
 C  -3.59147  12.31556  26.87680
 C  -2.84995  12.25603  25.36286
 H  -1.70238  12.21559  25.49371
 H  -3.13752  13.20981  24.76946
 H  -3.21768  11.32224  24.78914
 H  -4.69336  12.01444  26.72931
 H  -3.52082  13.41507  27.19336
 H  -3.21927  12.12534  29.15189
 H  -1.87274  11.36726  28.08659
 C  5.83574  -5.38148  -31.92666
 C  5.11194  -6.39297  -31.29348
 C  5.92167  -7.33397  -30.58416
 C  7.29175  -7.06415  -30.65760
 S  7.42728  -5.69479  -31.58329
 H  3.97372  -6.47347  -31.32494
 C  5.35099  -8.61444  -29.76622
 C  4.01748  -8.50561  -28.69687
 C  3.63537  -9.95705  -27.86259
 H  3.32689  -9.58055  -26.80440
 H  4.65741  -10.49757  -27.75974
 H  3.09799  -8.21579  -29.32427
 H  4.24424  -7.69283  -27.91946
 H  6.21488  -9.04218  -29.10259
 H  5.05998  -9.44215  -30.52824
 C  2.53590  -11.10675  -28.25651
 C  2.86761  -12.55870  -27.42186
 C  1.81873  -13.86485  -27.60058
 H  1.78363  -14.18866  -28.70979
 H  0.76145  -13.55698  -27.24680
 H  2.20214  -14.74579  -26.95248
 H  3.90049  -12.91308  -27.79981
 H  2.93787  -12.31237  -26.29888
 H  2.54055  -11.31482  -29.38751
 H  1.48039  -10.76500  -27.93174
 H  -8.42736  7.64942  30.82324
 H  -4.64594  6.21622  33.06651
 H  5.44942  -4.58163  -32.50511
 H  8.07890  -7.61874  -30.21442
*
