# ================================================================
# Orca input file made by Matty Jones
# ================================================================
! ZINDO/S 
! NOPOP
! NOMOPRINT
* xyz 0   1
 C  9.04946  13.90873  -5.26717
 C  9.38368  12.74514  -5.96161
 C  10.66516  12.20996  -5.62155
 C  11.34628  12.95471  -4.65369
 S  10.34125  14.21840  -4.27496
 H  8.77522  12.48017  -6.88906
 C  11.04759  10.86471  -6.42634
 C  10.38761  10.95490  -8.02909
 C  8.78358  10.31122  -7.96133
 H  9.01631  9.16771  -8.07262
 H  8.43229  10.44822  -6.86332
 H  10.36523  12.03522  -8.40242
 H  11.02065  10.30218  -8.72602
 H  10.62504  9.92573  -5.90119
 H  12.19765  10.76104  -6.53198
 C  7.44618  10.52437  -8.89726
 C  7.16384  11.69864  -10.09045
 C  6.20354  13.00965  -9.63136
 H  5.15576  12.89833  -10.11293
 H  6.69233  13.99113  -10.00114
 H  6.09773  13.03738  -8.48041
 H  6.63671  11.17678  -10.97361
 H  8.18377  12.10561  -10.43493
 H  7.26694  9.51313  -9.44423
 H  6.56209  10.66887  -8.15103
 C  -10.08703  -13.91408  3.80809
 C  -9.49748  -13.46445  4.99053
 C  -10.30349  -12.54535  5.73205
 C  -11.53572  -12.26783  5.13211
 S  -11.56273  -13.16167  3.73542
 H  -8.67338  -14.04050  5.54251
 C  -9.63718  -12.00067  7.08957
 C  -8.03204  -11.51801  6.73534
 C  -6.90445  -10.96725  7.85728
 H  -6.97182  -9.81052  7.86234
 H  -5.86084  -11.26084  7.44012
 H  -7.50796  -12.41597  6.23257
 H  -8.14446  -10.67260  5.95294
 H  -10.21470  -11.07885  7.48544
 H  -9.60606  -12.82954  7.89645
 C  -7.01014  -11.51515  9.38303
 C  -7.91857  -10.57014  10.44092
 C  -9.50525  -11.07638  10.65161
 H  -10.05454  -11.11210  9.63924
 H  -10.04627  -10.33240  11.35574
 H  -9.50342  -12.12960  11.13356
 H  -7.39568  -10.57892  11.46873
 H  -7.94026  -9.49021  10.03525
 H  -5.94320  -11.59842  9.82833
 H  -7.47988  -12.57434  9.37415
 H  8.15780  14.47508  -5.35546
 H  12.30437  12.75366  -4.24719
 H  -9.67768  -14.59336  3.10480
 H  -12.29382  -11.62148  5.49422
*
