# ================================================================
# Orca input file made by Matty Jones
# ================================================================
! ZINDO/S 
! NOPOP
! NOMOPRINT
* xyz 0   1
 C  -22.37588  -5.14363  1.21923
 C  -21.21578  -4.38454  1.38003
 C  -20.35438  -4.84838  2.42267
 C  -20.83673  -5.97945  3.08853
 S  -22.28326  -6.34098  2.36240
 H  -21.03298  -3.41789  0.80623
 C  -19.00217  -4.00202  2.65238
 C  -18.18241  -3.65314  1.19390
 C  -16.90742  -2.55175  1.34966
 H  -17.23261  -1.84935  2.21969
 H  -16.96569  -1.92279  0.36853
 H  -17.74704  -4.64676  0.80402
 H  -18.92107  -3.22744  0.42476
 H  -19.23717  -2.99933  3.17378
 H  -18.25827  -4.60302  3.31974
 C  -15.33770  -2.89949  1.58101
 C  -14.41207  -2.86423  0.16404
 C  -13.86199  -1.31559  -0.22134
 H  -14.69613  -0.54593  0.00419
 H  -13.59403  -1.27729  -1.34636
 H  -12.92525  -1.07177  0.41172
 H  -13.49296  -3.54105  0.32014
 H  -15.04655  -3.26245  -0.70811
 H  -15.23341  -3.95260  2.04454
 H  -14.88064  -2.12577  2.31060
 C  15.13978  0.19573  -3.00528
 C  15.98541  1.17609  -2.48404
 C  15.33155  2.11596  -1.62769
 C  13.96271  1.87658  -1.47196
 S  13.63801  0.53352  -2.38909
 H  17.10642  1.22384  -2.69814
 C  16.12728  3.32227  -0.92560
 C  17.19090  4.19355  -1.90872
 C  17.87273  5.50004  -1.08082
 H  17.01244  6.01526  -0.49965
 H  18.25279  6.23870  -1.88936
 H  18.03536  3.49324  -2.25395
 H  16.61015  4.59196  -2.81785
 H  15.43828  4.13829  -0.50016
 H  16.76024  2.89406  -0.04062
 C  19.08542  5.18449  -0.04555
 C  20.63260  5.07255  -0.70639
 C  21.08613  3.49100  -1.05937
 H  22.12678  3.28489  -0.59517
 H  21.13863  3.35291  -2.20689
 H  20.31500  2.75047  -0.61651
 H  20.66170  5.68640  -1.68123
 H  21.38397  5.51197  0.04829
 H  18.86403  4.19344  0.50987
 H  19.12370  6.03549  0.74267
 H  -23.15243  -4.98757  0.51480
 H  -20.37457  -6.49733  3.88966
 H  15.40227  -0.59751  -3.65756
 H  13.27630  2.43635  -0.88964
*
