# ================================================================
# Orca input file made by Matty Jones
# ================================================================
! ZINDO/S 
! NOPOP
! NOMOPRINT
* xyz 0   1
 C  -1.41359  2.77081  -1.99520
 C  -2.01135  1.56318  -2.35880
 C  -1.50960  0.42687  -1.65078
 C  -0.51059  0.73881  -0.72342
 S  -0.30359  2.38102  -0.82684
 H  -2.83995  1.45669  -3.13693
 C  -2.11028  -1.05300  -1.93805
 C  -3.79956  -1.34654  -1.75444
 C  -5.22344  -1.23492  -2.71361
 H  -5.91555  -2.05868  -2.26769
 H  -5.67039  -0.20606  -2.40394
 H  -3.81605  -2.46303  -1.43514
 H  -4.06674  -0.70070  -0.82819
 H  -1.57381  -1.86894  -1.31320
 H  -1.90754  -1.30534  -3.06464
 C  -5.37943  -1.32917  -4.33444
 C  -5.87458  -2.83102  -4.95781
 C  -7.54475  -3.04993  -5.09180
 H  -7.76860  -4.17615  -5.23896
 H  -7.93818  -2.45482  -6.00223
 H  -8.06081  -2.67433  -4.12704
 H  -5.42617  -2.93427  -6.01426
 H  -5.45802  -3.65965  -4.27638
 H  -6.16451  -0.55180  -4.68167
 H  -4.36521  -1.07416  -4.82698
 C  -0.51177  -0.88032  0.63922
 C  0.71080  -0.22677  0.80075
 C  1.59020  -0.85614  1.73606
 C  1.05936  -2.01251  2.31600
 S  -0.44890  -2.19284  1.65039
 H  0.89735  0.93099  0.90583
 C  3.06626  -0.33794  2.14481
 C  3.27167  1.25315  2.70513
 C  4.88429  1.71642  3.01565
 H  4.88159  2.86967  2.84607
 H  5.49875  1.25024  2.15616
 H  2.84384  1.96858  1.91422
 H  2.68543  1.35477  3.69004
 H  3.50165  -1.01970  2.98690
 H  3.76800  -0.43915  1.21553
 C  5.64649  1.47369  4.43900
 C  7.30022  1.88439  4.40778
 C  7.71364  3.47497  4.77109
 H  8.86799  3.56548  4.80834
 H  7.26824  3.76808  5.79687
 H  7.29895  4.17382  3.94756
 H  7.83889  1.19731  5.16079
 H  7.70552  1.68577  3.34819
 H  5.57181  0.35956  4.73388
 H  5.14854  2.11243  5.26228
 H  -1.62471  3.73407  -2.38400
 H  0.00621  0.06642  -0.08748
 H  -1.31179  -0.59728  0.00404
 H  1.52374  -2.64203  3.03130
*
