# ================================================================
# Orca input file made by Matty Jones
# ================================================================
! ZINDO/S 
! NOPOP
! NOMOPRINT
* xyz 0   1
 C  21.84475  6.95619  -4.17889
 C  21.24699  5.74856  -4.54250
 C  21.74874  4.61225  -3.83448
 C  22.74775  4.92419  -2.90711
 S  22.95475  6.56640  -3.01054
 H  20.41838  5.64207  -5.32063
 C  21.14806  3.13238  -4.12174
 C  19.45877  2.83884  -3.93814
 C  18.03490  2.95046  -4.89731
 H  17.34279  2.12670  -4.45138
 H  17.58795  3.97932  -4.58764
 H  19.44229  1.72235  -3.61884
 H  19.19159  3.48468  -3.01189
 H  21.68453  2.31644  -3.49690
 H  21.35080  2.88004  -5.24833
 C  17.87891  2.85621  -6.51814
 C  17.38376  1.35436  -7.14150
 C  15.71359  1.13545  -7.27550
 H  15.48974  0.00923  -7.42266
 H  15.32015  1.73056  -8.18593
 H  15.19753  1.51105  -6.31074
 H  17.83217  1.25111  -8.19796
 H  17.80032  0.52573  -6.46008
 H  17.09383  3.63358  -6.86537
 H  18.89313  3.11122  -7.01067
 C  -14.24160  -2.82248  3.07185
 C  -15.41747  -3.41413  3.53573
 C  -16.22081  -2.55635  4.35007
 C  -15.67653  -1.28095  4.53012
 S  -14.25006  -1.28168  3.68418
 H  -15.72309  -4.48820  3.30046
 C  -17.61055  -3.11446  4.96885
 C  -19.12533  -2.33183  4.86337
 C  -20.34831  -3.11685  5.75438
 H  -19.78620  -3.73977  6.55722
 H  -20.91465  -2.26404  6.30388
 H  -19.43324  -2.43269  3.74779
 H  -19.15984  -1.23573  5.13287
 H  -17.44747  -3.26397  6.11714
 H  -17.81393  -4.17386  4.51621
 C  -21.46977  -4.08618  5.08196
 C  -22.37484  -4.89337  6.27185
 C  -23.64840  -4.03218  6.95621
 H  -23.23236  -3.32826  7.77600
 H  -24.39869  -4.77510  7.43124
 H  -24.18129  -3.40872  6.14128
 H  -21.65709  -5.20505  7.11753
 H  -22.81869  -5.83828  5.78053
 H  -22.20093  -3.46156  4.44184
 H  -20.96436  -4.87894  4.41352
 H  21.63363  7.91945  -4.56769
 H  23.26454  4.25180  -2.27117
 H  -13.49960  -3.26488  2.45759
 H  -16.08926  -0.48112  5.09005
*
