# ================================================================
# Orca input file made by Matty Jones
# ================================================================
! ZINDO/S 
! NOPOP
! NOMOPRINT
* xyz 0   1
 C  17.85858  5.69696  -7.24104
 C  18.76126  6.44940  -6.48811
 C  19.62152  5.66747  -5.65576
 C  19.39699  4.29064  -5.75192
 S  18.16326  4.11567  -6.84634
 H  19.35794  7.41636  -6.80510
 C  20.82908  6.04141  -4.62103
 C  22.26444  6.88171  -5.01150
 C  22.51776  8.52832  -4.80401
 H  23.06043  8.93305  -5.74133
 H  21.49540  9.05293  -4.70184
 H  23.09815  6.33990  -4.41650
 H  22.43751  6.67133  -6.13724
 H  20.36041  6.70468  -3.78164
 H  21.21528  5.07539  -4.10395
 C  23.43457  8.80968  -3.47945
 C  22.60291  8.64432  -2.02220
 C  21.70976  10.00488  -1.61312
 H  22.09571  10.92133  -2.20508
 H  21.80833  10.20603  -0.47812
 H  20.59807  9.81541  -1.87823
 H  21.89864  7.73647  -2.09619
 H  23.37825  8.45869  -1.18853
 H  24.32562  8.07131  -3.45857
 H  23.85829  9.88532  -3.52795
 C  -16.22248  -6.92722  2.25024
 C  -17.39834  -7.51887  2.71412
 C  -18.20168  -6.66109  3.52845
 C  -17.65740  -5.38569  3.70851
 S  -16.23093  -5.38642  2.86257
 H  -17.70396  -8.59294  2.47885
 C  -19.59143  -7.21920  4.14723
 C  -21.10620  -6.43658  4.04176
 C  -22.32918  -7.22159  4.93277
 H  -21.76708  -7.84451  5.73561
 H  -22.89553  -6.36878  5.48227
 H  -21.41412  -6.53743  2.92618
 H  -21.14071  -5.34047  4.31126
 H  -19.42834  -7.36871  5.29553
 H  -19.79481  -8.27861  3.69460
 C  -23.45064  -8.19092  4.26035
 C  -24.35571  -8.99811  5.45024
 C  -25.62928  -8.13692  6.13460
 H  -25.21323  -7.43300  6.95439
 H  -26.37956  -8.87984  6.60963
 H  -26.16216  -7.51346  5.31967
 H  -23.63797  -9.30979  6.29592
 H  -24.79956  -9.94302  4.95892
 H  -24.18181  -7.56630  3.62023
 H  -22.94523  -8.98368  3.59191
 H  17.13153  6.05989  -7.92168
 H  19.90827  3.52010  -5.23380
 H  -15.48047  -7.36962  1.63598
 H  -18.07014  -4.58586  4.26844
*
