# ================================================================
# Orca input file made by Matty Jones
# ================================================================
! ZINDO/S 
! NOPOP
! NOMOPRINT
* xyz 0   1
 C  -1.80502  4.47547  41.96778
 C  -1.47081  3.31188  41.27334
 C  -0.18933  2.77669  41.61340
 C  0.49179  3.52144  42.58126
 S  -0.51323  4.78513  42.96000
 H  -2.07927  3.04691  40.34589
 C  0.19310  1.43144  40.80861
 C  -0.46688  1.52163  39.20586
 C  -2.07090  0.87795  39.27362
 H  -1.83817  -0.26556  39.16233
 H  -2.42220  1.01496  40.37163
 H  -0.48925  2.60195  38.83254
 H  0.16617  0.86892  38.50893
 H  -0.22944  0.49246  41.33376
 H  1.34317  1.32777  40.70297
 C  -3.40830  1.09110  38.33769
 C  -3.69064  2.26537  37.14451
 C  -4.65095  3.57638  37.60359
 H  -5.69872  3.46506  37.12202
 H  -4.16216  4.55786  37.23381
 H  -4.75675  3.60411  38.75455
 H  -4.21778  1.74351  36.26135
 H  -2.67072  2.67234  36.80002
 H  -3.58755  0.07987  37.79072
 H  -4.29239  1.23560  39.08393
 C  4.25352  0.72868  -39.13474
 C  3.41964  -0.38363  -39.01104
 C  3.95957  -1.43093  -38.20115
 C  5.22619  -1.14415  -37.68274
 S  5.60606  0.36884  -38.24578
 H  2.31094  -0.34199  -39.26517
 C  3.09421  -2.77056  -37.99835
 C  1.42016  -2.59835  -37.89525
 C  0.87869  -2.62634  -39.50661
 H  -0.15088  -2.10512  -39.53333
 H  1.61265  -2.04902  -40.18317
 H  0.96296  -3.47233  -37.30976
 H  1.15232  -1.59634  -37.40752
 H  3.34077  -3.27190  -36.96900
 H  3.35203  -3.52900  -38.83971
 C  0.76230  -4.14292  -40.08352
 C  0.33735  -4.29141  -41.71266
 C  0.05326  -2.85989  -42.54785
 H  -0.48983  -3.10601  -43.54115
 H  1.06145  -2.34076  -42.77766
 H  -0.61080  -2.15879  -41.91136
 H  1.19808  -4.84295  -42.24902
 H  -0.61987  -4.93138  -41.76892
 H  1.78076  -4.67992  -39.95795
 H  -0.03034  -4.71860  -39.46602
 H  -2.69668  5.04181  41.87949
 H  1.44988  3.32039  42.98776
 H  4.06245  1.61634  -39.68169
 H  5.81937  -1.76400  -37.06023
*
