# ================================================================
# Orca input file made by Matty Jones
# ================================================================
! ZINDO/S 
! NOPOP
! NOMOPRINT
* xyz 0   1
 C  22.49132  -1.48809  -0.91163
 C  21.80670  -2.56415  -0.34480
 C  22.55774  -3.28172  0.63770
 C  23.84189  -2.76968  0.84774
 S  23.97855  -1.47430  -0.17878
 H  20.75901  -2.89894  -0.65576
 C  21.97649  -4.54598  1.44717
 C  21.15374  -5.86722  0.75387
 C  19.46081  -5.88460  0.58982
 H  18.99609  -5.64113  1.61716
 H  19.16382  -5.06951  -0.16954
 H  21.42220  -6.78617  1.40028
 H  21.58788  -6.00633  -0.30526
 H  21.24217  -4.14557  2.26804
 H  22.85512  -5.07134  2.00183
 C  18.94797  -7.34782  0.07253
 C  17.28288  -7.63803  -0.02963
 C  16.60322  -8.33597  1.34595
 H  15.70434  -8.99521  1.03284
 H  16.24086  -7.49997  2.05914
 H  17.39174  -8.99036  1.88296
 H  17.10291  -8.35487  -0.91432
 H  16.75028  -6.63665  -0.22918
 H  19.37735  -7.53022  -0.98806
 H  19.37905  -8.15610  0.78241
 C  -22.72484  2.15952  -2.19528
 C  -21.87921  3.13987  -1.67403
 C  -22.53307  4.07974  -0.81769
 C  -23.90192  3.84036  -0.66196
 S  -24.22661  2.49730  -1.57909
 H  -20.75820  3.18762  -1.88813
 C  -21.73734  5.28605  -0.11560
 C  -20.67372  6.15734  -1.09872
 C  -19.99189  7.46382  -0.27082
 H  -20.85218  7.97904  0.31035
 H  -19.61183  8.20248  -1.07935
 H  -19.82926  5.45703  -1.44395
 H  -21.25447  6.55574  -2.00785
 H  -22.42634  6.10208  0.30984
 H  -21.10439  4.85785  0.76939
 C  -18.77920  7.14828  0.76445
 C  -17.23202  7.03633  0.10362
 C  -16.77850  5.45479  -0.24937
 H  -15.73784  5.24867  0.21484
 H  -16.72599  5.31669  -1.39689
 H  -17.54962  4.71425  0.19349
 H  -17.20292  7.65018  -0.87123
 H  -16.48065  7.47576  0.85829
 H  -19.00059  6.15723  1.31987
 H  -18.74092  7.99927  1.55267
 H  22.13552  -0.82043  -1.65408
 H  24.57458  -3.13334  1.52191
 H  -22.46235  1.36627  -2.84755
 H  -24.58833  4.40013  -0.07963
*
