# ================================================================
# Orca input file made by Matty Jones
# ================================================================
! ZINDO/S 
! NOPOP
! NOMOPRINT
* xyz 0   1
 C  -6.70883  14.79168  26.32488
 C  -7.30659  13.58405  25.96127
 C  -6.80484  12.44774  26.66929
 C  -5.80583  12.75968  27.59666
 S  -5.59883  14.40189  27.49324
 H  -8.13520  13.47756  25.18315
 C  -7.40552  10.96787  26.38203
 C  -9.09481  10.67433  26.56564
 C  -10.51869  10.78595  25.60646
 H  -11.21080  9.96219  26.05239
 H  -10.96563  11.81481  25.91614
 H  -9.11129  9.55784  26.88493
 H  -9.36199  11.32017  27.49188
 H  -6.86906  10.15193  27.00687
 H  -7.20278  10.71553  25.25544
 C  -10.67467  10.69170  23.98564
 C  -11.16983  9.18985  23.36227
 C  -12.83999  8.97094  23.22827
 H  -13.06384  7.84471  23.08111
 H  -13.23343  9.56605  22.31784
 H  -13.35605  9.34654  24.19304
 H  -10.72141  9.08660  22.30582
 H  -10.75326  8.36122  24.04369
 H  -11.45975  11.46907  23.63841
 H  -9.66046  10.94671  23.49310
 C  11.01047  -6.91157  -28.17660
 C  10.28668  -7.92306  -27.54341
 C  11.09640  -8.86406  -26.83409
 C  12.46649  -8.59424  -26.90754
 S  12.60202  -7.22488  -27.83322
 H  9.14846  -8.00356  -27.57487
 C  10.52573  -10.14454  -26.01615
 C  9.19222  -10.03570  -24.94680
 C  8.81011  -11.48714  -24.11252
 H  8.50163  -11.11064  -23.05433
 H  9.83215  -12.02766  -24.00967
 H  8.27273  -9.74589  -25.57420
 H  9.41898  -9.22292  -24.16939
 H  11.38962  -10.57227  -25.35252
 H  10.23472  -10.97224  -26.77818
 C  7.71064  -12.63685  -24.50644
 C  8.04235  -14.08879  -23.67179
 C  6.99347  -15.39495  -23.85051
 H  6.95837  -15.71875  -24.95972
 H  5.93619  -15.08708  -23.49673
 H  7.37688  -16.27588  -23.20241
 H  9.07523  -14.44317  -24.04974
 H  8.11261  -13.84246  -22.54881
 H  7.71529  -12.84491  -25.63744
 H  6.65513  -12.29509  -24.18168
 H  -6.91995  15.75494  25.93608
 H  -5.28904  12.08729  28.23260
 H  10.62416  -6.11172  -28.75504
 H  13.25364  -9.14883  -26.46435
*
