# ================================================================
# Orca input file made by Matty Jones
# ================================================================
! ZINDO/S 
! NOPOP
! NOMOPRINT
* xyz 0   1
 C  15.00588  9.43138  -1.85924
 C  14.40812  8.22375  -2.22285
 C  14.90987  7.08744  -1.51483
 C  15.90888  7.39938  -0.58746
 S  16.11588  9.04160  -0.69088
 H  13.57951  8.11727  -3.00097
 C  14.30919  5.60757  -1.80209
 C  12.61990  5.31404  -1.61848
 C  11.19602  5.42565  -2.57766
 H  10.50391  4.60189  -2.13173
 H  10.74908  6.45452  -2.26798
 H  12.60342  4.19755  -1.29919
 H  12.35272  5.95988  -0.69224
 H  14.84565  4.79164  -1.17725
 H  14.51193  5.35523  -2.92868
 C  11.04004  5.33140  -4.19848
 C  10.54488  3.82955  -4.82185
 C  8.87472  3.61064  -4.95585
 H  8.65087  2.48442  -5.10301
 H  8.48128  4.20576  -5.86628
 H  8.35866  3.98624  -3.99108
 H  10.99330  3.72630  -5.87830
 H  10.96145  3.00093  -4.14043
 H  10.25495  6.10877  -4.54571
 H  12.05425  5.58642  -4.69102
 C  -13.63321  -7.87187  -0.95633
 C  -13.04365  -7.42223  0.22611
 C  -13.84967  -6.50313  0.96763
 C  -15.08190  -6.22561  0.36770
 S  -15.10891  -7.11946  -1.02900
 H  -12.21955  -7.99828  0.77809
 C  -13.18336  -5.95845  2.32515
 C  -11.57822  -5.47580  1.97093
 C  -10.45063  -4.92503  3.09286
 H  -10.51799  -3.76830  3.09792
 H  -9.40701  -5.21863  2.67571
 H  -11.05414  -6.37375  1.46816
 H  -11.69063  -4.63039  1.18852
 H  -13.76088  -5.03664  2.72102
 H  -13.15224  -6.78732  3.13204
 C  -10.55631  -5.47293  4.61861
 C  -11.46475  -4.52793  5.67650
 C  -13.05142  -5.03417  5.88719
 H  -13.60072  -5.06989  4.87483
 H  -13.59244  -4.29019  6.59133
 H  -13.04959  -6.08739  6.36915
 H  -10.94185  -4.53671  6.70432
 H  -11.48643  -3.44800  5.27083
 H  -9.48938  -5.55621  5.06391
 H  -11.02605  -6.53213  4.60973
 H  14.79476  10.39464  -2.24804
 H  16.42567  6.72699  0.04848
 H  -13.22386  -8.55115  -1.65961
 H  -15.84000  -5.57927  0.72980
*
