# ================================================================
# Orca input file made by Matty Jones
# ================================================================
! ZINDO/S 
! NOPOP
! NOMOPRINT
* xyz 0   1
 C  22.46244  -9.36096  -5.64961
 C  23.65972  -8.99609  -6.26711
 C  24.83113  -9.43752  -5.57632
 C  24.55746  -10.15457  -4.40745
 S  22.90379  -10.20397  -4.29180
 H  23.92424  -9.01768  -7.42444
 C  26.28654  -9.06368  -6.18704
 C  26.65738  -7.44983  -6.69210
 C  26.30053  -6.83784  -8.25498
 H  26.73882  -7.58501  -9.01785
 H  25.15066  -6.82245  -8.35521
 H  26.10612  -6.76035  -5.95142
 H  27.79551  -7.32804  -6.55619
 H  26.47870  -9.71979  -7.12263
 H  27.10763  -9.31768  -5.39660
 C  26.88658  -5.34134  -8.57069
 C  26.31435  -4.47857  -9.92561
 C  27.05587  -4.53811  -11.43955
 H  28.20344  -4.57855  -11.30870
 H  26.76830  -3.58432  -12.03295
 H  26.68815  -5.47190  -12.01327
 H  25.21246  -4.77969  -10.07310
 H  26.38501  -3.37906  -9.60906
 H  26.68656  -4.66879  -7.65052
 H  28.03308  -5.42687  -8.71582
 C  -27.64286  3.81169  4.97721
 C  -27.06143  4.47351  6.05972
 C  -27.90364  5.45949  6.66204
 C  -29.15642  5.57683  6.05206
 S  -29.15613  4.47004  4.81697
 H  -26.00385  4.26274  6.43640
 C  -27.48686  6.39349  7.91795
 C  -26.17226  7.43984  7.68388
 C  -25.75712  8.48540  8.95509
 H  -26.73605  8.96312  9.34506
 H  -25.28762  7.86104  9.80324
 H  -25.24805  6.79809  7.44239
 H  -26.43768  8.09861  6.77510
 H  -28.37863  7.01607  8.32053
 H  -27.15521  5.69083  8.79434
 C  -24.74037  9.66730  8.47029
 C  -23.07696  9.38182  8.52387
 C  -22.62745  7.92678  9.23003
 H  -21.48370  7.78641  9.11703
 H  -23.17695  7.05332  8.70893
 H  -22.90365  7.94905  10.35398
 H  -22.68476  9.38337  7.43821
 H  -22.57906  10.24121  9.10934
 H  -24.99384  9.94962  7.37496
 H  -24.93186  10.60132  9.13120
 H  21.47846  -9.14472  -5.97917
 H  25.25989  -10.57792  -3.73591
 H  -27.20858  3.04899  4.38283
 H  -29.94183  6.23532  6.32246
*
