# ================================================================
# Orca input file made by Matty Jones
# ================================================================
! ZINDO/S 
! NOPOP
! NOMOPRINT
* xyz 0   1
 C  20.08878  -6.53636  -10.82215
 C  21.31135  -5.88280  -10.66062
 C  22.19075  -6.51217  -9.72531
 C  21.65991  -7.66854  -9.14537
 S  20.15165  -7.84887  -9.81098
 H  21.49790  -4.72504  -10.55554
 C  23.66681  -5.99397  -9.31656
 C  23.87222  -4.40288  -8.75624
 C  25.48484  -3.93961  -8.44572
 H  25.48214  -2.78636  -8.61530
 H  26.09930  -4.40579  -9.30521
 H  23.44439  -3.68745  -9.54715
 H  23.28598  -4.30126  -7.77133
 H  24.10220  -6.67573  -8.47447
 H  24.36855  -6.09518  -10.24584
 C  26.24704  -4.18234  -7.02237
 C  27.90077  -3.77165  -7.05359
 C  28.31419  -2.18106  -6.69028
 H  29.46854  -2.09055  -6.65303
 H  27.86879  -1.88795  -5.66450
 H  27.89950  -1.48221  -7.51381
 H  28.43944  -4.45872  -6.30058
 H  28.30607  -3.97026  -8.11318
 H  26.17236  -5.29648  -6.72749
 H  25.74909  -3.54360  -6.19909
 C  -26.47815  1.39883  5.74825
 C  -25.89672  2.06065  6.83076
 C  -26.73893  3.04664  7.43308
 C  -27.99171  3.16397  6.82310
 S  -27.99142  2.05718  5.58801
 H  -24.83914  1.84989  7.20744
 C  -26.32214  3.98064  8.68898
 C  -25.00755  5.02698  8.45492
 C  -24.59241  6.07254  9.72613
 H  -25.57134  6.55026  10.11609
 H  -24.12291  5.44818  10.57427
 H  -24.08334  4.38524  8.21343
 H  -25.27297  5.68575  7.54613
 H  -27.21392  4.60322  9.09156
 H  -25.99050  3.27798  9.56537
 C  -23.57566  7.25445  9.24133
 C  -21.91225  6.96896  9.29491
 C  -21.46274  5.51393  10.00106
 H  -20.31899  5.37355  9.88807
 H  -22.01224  4.64046  9.47997
 H  -21.73894  5.53619  11.12502
 H  -21.52005  6.97051  8.20924
 H  -21.41435  7.82835  9.88038
 H  -23.82913  7.53677  8.14600
 H  -23.76715  8.18847  9.90223
 H  19.28876  -6.25331  -11.45733
 H  22.12429  -8.29806  -8.43007
 H  -26.04387  0.63613  5.15387
 H  -28.77712  3.82246  7.09350
*
