# ================================================================
# Orca input file made by Matty Jones
# ================================================================
! ZINDO/S 
! NOPOP
! NOMOPRINT
* xyz 0   1
 C  -12.12195  -27.88229  -17.93876
 C  -10.97533  -27.13474  -17.66610
 C  -10.03485  -27.79698  -16.81687
 C  -10.44088  -29.07389  -16.41693
 S  -11.92132  -29.31297  -17.12514
 H  -10.79286  -26.08502  -18.08074
 C  -8.62808  -27.06520  -16.41532
 C  -7.85185  -26.97271  -14.86945
 C  -6.27224  -26.24967  -14.79301
 H  -5.81579  -26.52202  -15.82542
 H  -5.73989  -26.90252  -13.98996
 H  -7.75161  -28.03509  -14.46187
 H  -8.53037  -26.34233  -14.19043
 H  -7.79707  -27.54031  -17.08789
 H  -8.71668  -25.94199  -16.72058
 C  -5.79281  -24.70953  -14.48124
 C  -5.16786  -24.27282  -12.95472
 C  -3.49017  -24.38200  -12.75689
 H  -3.14040  -25.45052  -13.02631
 H  -3.22372  -24.15227  -11.65386
 H  -2.96885  -23.61339  -13.44674
 H  -5.45783  -23.17270  -12.76725
 H  -5.66126  -24.94435  -12.16192
 H  -6.69773  -24.01101  -14.66272
 H  -4.96190  -24.43534  -15.24173
 C  8.59050  30.89597  12.79569
 C  8.34011  29.52414  12.73850
 C  8.62401  28.82762  13.95444
 C  9.10098  29.65363  14.97695
 S  9.14571  31.18080  14.33183
 H  7.92910  28.99659  11.81183
 C  8.39119  27.21900  14.04246
 C  8.00686  26.18983  15.38219
 C  6.42803  25.94403  15.95605
 H  6.08162  26.95258  16.40703
 H  5.76552  25.69858  15.04237
 H  8.70821  26.37186  16.25649
 H  8.29166  25.13586  14.96261
 H  9.36565  26.72025  13.62687
 H  7.53002  26.95922  13.29504
 C  6.24605  24.78039  17.09075
 C  5.85342  23.23989  16.49568
 C  7.15815  22.23138  16.16242
 H  8.10116  22.86938  15.95922
 H  6.91585  21.58907  15.23032
 H  7.34631  21.53793  17.07038
 H  5.25258  23.37919  15.52201
 H  5.19087  22.71622  17.28076
 H  7.22405  24.67616  17.69844
 H  5.39501  25.08551  17.81350
 H  -12.94706  -27.59580  -18.53936
 H  -9.91297  -29.74792  -15.79196
 H  8.45441  31.60604  12.02053
 H  9.37632  29.36428  15.95881
*
