# ================================================================
# Orca input file made by Matty Jones
# ================================================================
! ZINDO/S 
! NOPOP
! NOMOPRINT
* xyz 0   1
 C  25.75945  0.77971  -12.13858
 C  24.92557  -0.33260  -12.01487
 C  25.46550  -1.37990  -11.20498
 C  26.73212  -1.09312  -10.68657
 S  27.11199  0.41987  -11.24961
 H  23.81687  -0.29096  -12.26900
 C  24.60014  -2.71952  -11.00218
 C  22.92609  -2.54732  -10.89908
 C  22.38462  -2.57531  -12.51044
 H  21.35505  -2.05409  -12.53717
 H  23.11858  -1.99799  -13.18701
 H  22.46889  -3.42130  -10.31360
 H  22.65825  -1.54531  -10.41135
 H  24.84670  -3.22087  -9.97283
 H  24.85796  -3.47797  -11.84355
 C  22.26823  -4.09189  -13.08735
 C  21.84328  -4.24038  -14.71649
 C  21.55919  -2.80886  -15.55168
 H  21.01610  -3.05498  -16.54498
 H  22.56738  -2.28973  -15.78149
 H  20.89513  -2.10775  -14.91519
 H  22.70401  -4.79192  -15.25285
 H  20.88606  -4.88035  -14.77275
 H  23.28669  -4.62889  -12.96178
 H  21.47559  -4.66756  -12.46985
 C  -18.45582  2.08885  12.41432
 C  -19.54114  1.39306  12.94896
 C  -20.58264  2.23334  13.45243
 C  -20.31838  3.59954  13.31464
 S  -18.83095  3.69460  12.58737
 H  -20.04298  0.36662  12.66136
 C  -21.98875  1.78412  14.11513
 C  -23.17516  1.38276  12.96210
 C  -24.04567  2.75053  12.40996
 H  -23.46678  3.68274  12.75421
 H  -23.95603  2.70554  11.25150
 H  -22.66980  0.88116  12.06301
 H  -23.92517  0.66373  13.45313
 H  -22.42122  2.58326  14.82962
 H  -21.81988  0.81859  14.75124
 C  -25.62187  2.95519  12.78366
 C  -26.57994  2.53468  11.44402
 C  -28.24107  2.43528  11.67290
 H  -28.47384  1.51066  12.32986
 H  -28.75691  2.31407  10.64284
 H  -28.62673  3.39297  12.19210
 H  -26.20795  1.51926  11.04756
 H  -26.39922  3.34768  10.64242
 H  -25.92347  2.28513  13.67177
 H  -25.83591  4.05809  13.04846
 H  25.56838  1.66737  -12.68552
 H  27.32530  -1.71297  -10.06406
 H  -17.57702  1.67748  11.98761
 H  -20.93885  4.40564  13.61264
*
