# ================================================================
# Orca input file made by Matty Jones
# ================================================================
! ZINDO/S 
! NOPOP
! NOMOPRINT
* xyz 0   1
 C  11.16539  10.36534  -5.44388
 C  11.49960  9.20175  -6.13832
 C  12.78109  8.66656  -5.79826
 C  13.46220  9.41131  -4.83040
 S  12.45718  10.67501  -4.45166
 H  10.89114  8.93678  -7.06577
 C  13.16352  7.32132  -6.60305
 C  12.50353  7.41150  -8.20580
 C  10.89951  6.76783  -8.13804
 H  11.13224  5.62431  -8.24933
 H  10.54821  6.90483  -7.04003
 H  12.48116  8.49182  -8.57912
 H  13.13658  6.75879  -8.90273
 H  12.74097  6.38234  -6.07790
 H  14.31358  7.21764  -6.70869
 C  9.56211  6.98098  -9.07397
 C  9.27977  8.15524  -10.26715
 C  8.31946  9.46625  -9.80807
 H  7.27169  9.35493  -10.28964
 H  8.80825  10.44774  -10.17785
 H  8.21366  9.49398  -8.65711
 H  8.75263  7.63338  -11.15031
 H  10.29969  8.56222  -10.61164
 H  9.38286  5.96974  -9.62094
 H  8.67802  7.12548  -8.32773
 C  -13.29934  -12.71401  7.72681
 C  -12.42735  -11.63465  7.87691
 C  -12.98503  -10.52842  8.59072
 C  -14.30403  -10.73531  9.00635
 S  -14.70520  -12.25468  8.47626
 H  -11.33418  -11.63375  7.55072
 C  -11.89970  -9.32029  8.72338
 C  -12.01040  -7.68825  8.25548
 C  -10.44836  -7.02847  8.53059
 H  -10.38938  -6.83102  9.66988
 H  -9.68249  -7.85671  8.26673
 H  -12.26897  -7.61482  7.14243
 H  -12.77937  -7.13825  8.90031
 H  -11.64957  -9.23742  9.86935
 H  -10.90831  -9.66493  8.20302
 C  -9.98572  -5.67304  7.74867
 C  -9.19542  -5.91900  6.26087
 C  -7.51369  -6.05002  6.30898
 H  -7.15287  -6.05026  7.40752
 H  -7.04380  -5.15444  5.74557
 H  -7.19298  -7.03702  5.79555
 H  -9.61324  -6.88679  5.79617
 H  -9.45541  -5.02499  5.58084
 H  -10.91438  -5.01929  7.53584
 H  -9.25606  -5.07768  8.42051
 H  10.27373  10.93168  -5.53217
 H  14.42029  9.21027  -4.42390
 H  -13.10401  -13.63352  7.23696
 H  -14.91878  -10.06200  9.54703
*
