# ================================================================
# Orca input file made by Matty Jones
# ================================================================
! ZINDO/S 
! NOPOP
! NOMOPRINT
* xyz 0   1
 C  15.88834  11.43354  -7.58682
 C  16.22255  10.26995  -8.28126
 C  17.50403  9.73476  -7.94120
 C  18.18515  10.47951  -6.97335
 S  17.18013  11.74321  -6.59461
 H  15.61409  10.00498  -9.20871
 C  17.88646  8.38952  -8.74599
 C  17.22648  8.47970  -10.34875
 C  15.62245  7.83603  -10.28098
 H  15.85519  6.69251  -10.39227
 H  15.27116  7.97303  -9.18297
 H  17.20410  9.56002  -10.72207
 H  17.85952  7.82699  -11.04568
 H  17.46391  7.45054  -8.22085
 H  19.03652  8.28584  -8.85163
 C  14.28506  8.04918  -11.21691
 C  14.00272  9.22344  -12.41010
 C  13.04241  10.53445  -11.95101
 H  11.99464  10.42313  -12.43259
 H  13.53120  11.51594  -12.32080
 H  12.93661  10.56218  -10.80006
 H  13.47558  8.70158  -13.29326
 H  15.02264  9.63042  -12.75458
 H  14.10581  7.03794  -11.76389
 H  13.40096  8.19368  -10.47068
 C  -10.69543  -8.86469  7.83626
 C  -11.87129  -9.45634  8.30014
 C  -12.67463  -8.59857  9.11448
 C  -12.13035  -7.32316  9.29453
 S  -10.70388  -7.32389  8.44860
 H  -12.17691  -10.53042  8.06488
 C  -14.06438  -9.15668  9.73326
 C  -15.57916  -8.37405  9.62779
 C  -16.80213  -9.15907  10.51880
 H  -16.24003  -9.78199  11.32163
 H  -17.36848  -8.30626  11.06830
 H  -15.88707  -8.47491  8.51221
 H  -15.61366  -7.27795  9.89729
 H  -13.90129  -9.30619  10.88156
 H  -14.26776  -10.21608  9.28063
 C  -17.92359  -10.12839  9.84638
 C  -18.82866  -10.93558  11.03626
 C  -20.10223  -10.07439  11.72063
 H  -19.68618  -9.37047  12.54042
 H  -20.85251  -10.81732  12.19566
 H  -20.63511  -9.45093  10.90570
 H  -18.11092  -11.24726  11.88195
 H  -19.27251  -11.88050  10.54494
 H  -18.65476  -9.50378  9.20626
 H  -17.41818  -10.92115  9.17794
 H  14.99667  11.99988  -7.67511
 H  19.14324  10.27847  -6.56684
 H  -9.95343  -9.30710  7.22201
 H  -12.54309  -6.52334  9.85447
*
