# ================================================================
# Orca input file made by Matty Jones
# ================================================================
! ZINDO/S 
! NOPOP
! NOMOPRINT
* xyz 0   1
 C  26.11587  -0.61510  -7.04493
 C  25.51363  -1.87127  -7.13009
 C  26.05045  -2.83873  -6.22449
 C  27.08177  -2.34399  -5.42017
 S  27.27249  -0.75790  -5.86556
 H  24.67208  -2.13046  -7.85750
 C  25.43613  -4.34112  -6.23207
 C  25.08360  -5.20749  -4.80520
 C  24.42942  -6.77289  -4.98133
 H  24.88410  -7.19530  -5.95989
 H  24.85500  -7.39027  -4.09559
 H  26.06586  -5.36308  -4.23093
 H  24.35015  -4.58054  -4.18164
 H  26.17876  -5.03215  -6.81813
 H  24.42960  -4.33193  -6.82329
 C  22.81586  -7.02333  -5.02438
 C  22.06401  -7.16042  -6.53548
 C  21.39891  -5.75042  -7.16148
 H  20.44590  -6.01755  -7.76336
 H  22.16617  -5.23823  -7.85935
 H  21.11891  -5.03415  -6.29710
 H  22.84962  -7.54665  -7.28599
 H  21.21885  -7.93997  -6.43673
 H  22.58002  -8.00508  -4.45470
 H  22.29375  -6.15125  -4.46890
 C  -20.54179  6.95661  4.38970
 C  -21.46390  6.28956  5.19757
 C  -22.21401  7.14892  6.05962
 C  -21.88252  8.50136  5.93180
 S  -20.69549  8.56188  4.77520
 H  -21.40279  5.16892  5.39357
 C  -23.33836  6.56151  7.07353
 C  -24.50167  5.53937  6.33025
 C  -25.82868  4.63004  6.92397
 H  -26.13498  5.11814  7.92622
 H  -26.69015  4.76796  6.16477
 H  -23.86778  4.75942  5.81410
 H  -24.98758  6.23182  5.53471
 H  -23.93173  7.42782  7.57057
 H  -22.82725  5.94061  7.91046
 C  -25.60329  3.02949  7.17161
 C  -25.70298  2.04677  5.78448
 C  -27.19817  1.46510  5.27094
 H  -27.03330  0.52551  4.61359
 H  -27.72762  2.28222  4.64475
 H  -27.84743  1.19026  6.18648
 H  -25.03831  1.12422  5.98686
 H  -25.26941  2.65091  4.91212
 H  -26.40798  2.64396  7.90766
 H  -24.55974  2.85625  7.63612
 H  25.88293  0.24820  -7.61419
 H  27.62742  -2.87213  -4.68062
 H  -19.88226  6.52747  3.67946
 H  -22.30209  9.31710  6.46295
*
