# ================================================================
# Orca input file made by Matty Jones
# ================================================================
! ZINDO/S 
! NOPOP
! NOMOPRINT
* xyz 0   1
 C  -19.22368  3.61414  -6.81690
 C  -19.82144  2.40651  -7.18051
 C  -19.31969  1.27020  -6.47249
 C  -18.32068  1.58214  -5.54512
 S  -18.11368  3.22436  -5.64854
 H  -20.65005  2.30002  -7.95863
 C  -19.92037  -0.20967  -6.75975
 C  -21.60965  -0.50321  -6.57614
 C  -23.03353  -0.39159  -7.53532
 H  -23.72564  -1.21535  -7.08939
 H  -23.48048  0.63727  -7.22564
 H  -21.62614  -1.61970  -6.25685
 H  -21.87684  0.14263  -5.64990
 H  -19.38390  -1.02561  -6.13491
 H  -19.71763  -0.46201  -7.88634
 C  -23.18952  -0.48584  -9.15614
 C  -23.68467  -1.98769  -9.77951
 C  -25.35484  -2.20660  -9.91351
 H  -25.57869  -3.33282  -10.06067
 H  -25.74827  -1.61149  -10.82394
 H  -25.87090  -1.83100  -8.94875
 H  -23.23626  -2.09094  -10.83596
 H  -23.26811  -2.81632  -9.09809
 H  -23.97460  0.29153  -9.50337
 H  -22.17530  -0.23083  -9.64868
 C  25.65208  -0.83686  5.29418
 C  24.28936  -1.07632  5.47740
 C  23.62495  -0.09048  6.27171
 C  24.46727  0.93259  6.71796
 S  25.96865  0.56868  6.11474
 H  23.74011  -1.97551  5.03585
 C  22.05954  -0.08147  6.66045
 C  21.35433  -1.37237  7.49053
 C  21.47241  -1.11761  9.15963
 H  21.61199  -2.15487  9.65540
 H  22.42597  -0.49108  9.35776
 H  20.24406  -1.44661  7.20066
 H  21.90147  -2.34527  7.22113
 H  21.81435  0.87321  7.28053
 H  21.44108  0.00525  5.66809
 C  20.19177  -0.37786  9.84023
 C  20.19220  1.30472  9.70354
 C  19.04068  2.01428  8.69398
 H  19.57267  2.72268  7.94813
 H  18.27533  2.63042  9.30317
 H  18.47996  1.18747  8.10902
 H  20.19166  1.66229  10.78783
 H  21.20264  1.58976  9.23256
 H  19.21703  -0.77212  9.36099
 H  20.17022  -0.62567  10.97198
 H  -19.43480  4.57740  -7.20570
 H  -17.80389  0.90975  -4.90918
 H  26.33967  -1.42876  4.74603
 H  24.20177  1.76619  7.31648
*
