# ================================================================
# Orca input file made by Matty Jones
# ================================================================
! ZINDO/S 
! NOPOP
! NOMOPRINT
* xyz 0   1
 C  6.09392  -28.54363  -5.11144
 C  7.24053  -27.79609  -4.83878
 C  8.18102  -28.45832  -3.98955
 C  7.77498  -29.73524  -3.58961
 S  6.29454  -29.97432  -4.29782
 H  7.42300  -26.74637  -5.25341
 C  9.58778  -27.72654  -3.58799
 C  10.36402  -27.63405  -2.04212
 C  11.94362  -26.91101  -1.96568
 H  12.40007  -27.18337  -2.99810
 H  12.47597  -27.56387  -1.16264
 H  10.46426  -28.69643  -1.63454
 H  9.68549  -27.00368  -1.36311
 H  10.41879  -28.20166  -4.26057
 H  9.49918  -26.60334  -3.89325
 C  12.42305  -25.37087  -1.65392
 C  13.04801  -24.93416  -0.12740
 C  14.72569  -25.04335  0.07044
 H  15.07547  -26.11186  -0.19899
 H  14.99214  -24.81361  1.17346
 H  15.24702  -24.27474  -0.61941
 H  12.75803  -23.83404  0.06008
 H  12.55460  -25.60570  0.66541
 H  11.51813  -24.67236  -1.83540
 H  13.25396  -25.09669  -2.41441
 C  -12.69158  23.57655  -0.68926
 C  -11.57235  24.03434  0.00761
 C  -11.79642  25.23792  0.74616
 C  -13.09916  25.73302  0.63187
 S  -13.89403  24.67050  -0.36294
 H  -10.55918  23.50929  -0.03296
 C  -10.53763  25.81897  1.57346
 C  -9.99523  27.41516  1.34758
 C  -10.66974  28.68929  2.20802
 H  -11.62578  29.01493  1.65314
 H  -9.90995  29.56737  2.11379
 H  -8.86438  27.40985  1.58836
 H  -10.13300  27.65220  0.22435
 H  -10.75086  25.69097  2.71193
 H  -9.59585  25.16501  1.33677
 C  -10.96756  28.45883  3.79059
 C  -9.82356  29.07366  4.87435
 C  -8.58581  28.04245  5.35181
 H  -8.76120  26.98681  4.91414
 H  -8.56695  27.98469  6.50862
 H  -7.57422  28.45853  4.97226
 H  -9.34500  30.00554  4.39246
 H  -10.39742  29.39381  5.82440
 H  -11.06596  27.33092  4.01895
 H  -11.97775  28.96436  4.05262
 H  5.26880  -28.25715  -5.71203
 H  8.30289  -30.40927  -2.96464
 H  -12.75873  22.71184  -1.29866
 H  -13.49564  26.60490  1.08600
*
