# ================================================================
# Orca input file made by Matty Jones
# ================================================================
! ZINDO/S 
! NOPOP
! NOMOPRINT
* xyz 0   1
 C  -9.24560  14.99518  30.53257
 C  -8.91139  13.83159  29.83813
 C  -7.62990  13.29641  30.17819
 C  -6.94879  14.04115  31.14605
 S  -7.95381  15.30485  31.52478
 H  -9.51985  13.56662  28.91068
 C  -7.24747  11.95116  29.37340
 C  -7.90746  12.04134  27.77065
 C  -9.51148  11.39767  27.83841
 H  -9.27875  10.25415  27.72712
 H  -9.86278  11.53467  28.93642
 H  -7.92983  13.12167  27.39732
 H  -7.27441  11.38863  27.07372
 H  -7.67002  11.01218  29.89854
 H  -6.09741  11.84749  29.26776
 C  -10.84888  11.61082  26.90248
 C  -11.13122  12.78509  25.70929
 C  -12.09152  14.09609  26.16838
 H  -13.13930  13.98477  25.68681
 H  -11.60274  15.07758  25.79860
 H  -12.19733  14.12382  27.31933
 H  -11.65836  12.26322  24.82613
 H  -10.11130  13.19206  25.36481
 H  -11.02813  10.59958  26.35551
 H  -11.73297  11.75532  27.64871
 C  11.90400  -9.54094  -29.29619
 C  11.29644  -10.70841  -28.83165
 C  11.86638  -11.22310  -27.62560
 C  12.92933  -10.45819  -27.13535
 S  13.10559  -9.20298  -28.20483
 H  10.42680  -11.22613  -29.35753
 C  11.28630  -12.57076  -26.94928
 C  9.62092  -12.74605  -26.59552
 C  8.31488  -13.35022  -27.50525
 H  7.79600  -14.11524  -26.79740
 H  7.59495  -12.44573  -27.62772
 H  9.61755  -13.40415  -25.63908
 H  9.29172  -11.67554  -26.29880
 H  11.79118  -12.79877  -25.93558
 H  11.52451  -13.46019  -27.66242
 C  8.43328  -14.06917  -28.96005
 C  6.89563  -14.46190  -29.57290
 C  6.28384  -15.96819  -29.13595
 H  5.13984  -15.97964  -29.31617
 H  6.50163  -16.16565  -28.01741
 H  6.78470  -16.78630  -29.78255
 H  6.95702  -14.42226  -30.72303
 H  6.15223  -13.66218  -29.20260
 H  8.94508  -13.35983  -29.71265
 H  9.04577  -15.04399  -28.87852
 H  -10.13726  15.56152  30.44428
 H  -5.99070  13.84011  31.55255
 H  11.65067  -8.98712  -30.16377
 H  13.50246  -10.64213  -26.26282
*
