# ================================================================
# Orca input file made by Matty Jones
# ================================================================
! ZINDO/S 
! NOPOP
! NOMOPRINT
* xyz 0   1
 C  15.42197  5.05215  33.43731
 C  15.75618  3.88856  32.74286
 C  17.03766  3.35337  33.08292
 C  17.71878  4.09812  34.05078
 S  16.71375  5.36182  34.42952
 H  15.14772  3.62359  31.81541
 C  17.42009  2.00813  32.27813
 C  16.76011  2.09831  30.67538
 C  15.15608  1.45464  30.74314
 H  15.38882  0.31112  30.63185
 H  14.80479  1.59164  31.84116
 H  16.73773  3.17864  30.30206
 H  17.39315  1.44560  29.97845
 H  16.99754  1.06915  32.80328
 H  18.57015  1.90446  32.17250
 C  13.81869  1.66779  29.80722
 C  13.53635  2.84205  28.61403
 C  12.57604  4.15306  29.07312
 H  11.52827  4.04174  28.59154
 H  13.06483  5.13455  28.70333
 H  12.47024  4.18079  30.22407
 H  13.00921  2.32019  27.73087
 H  14.55627  3.24903  28.26955
 H  13.63944  0.65655  29.26024
 H  12.93459  1.81229  30.55345
 C  -17.02668  -6.73997  -29.34329
 C  -16.97859  -5.53213  -30.04091
 C  -17.40740  -4.40056  -29.27936
 C  -17.79603  -4.71649  -27.97381
 S  -17.59154  -6.35619  -27.83241
 H  -16.90359  -5.52238  -31.18219
 C  -17.35172  -2.98647  -30.06529
 C  -15.87045  -2.92305  -30.95475
 C  -15.33590  -1.69529  -31.99494
 H  -15.08510  -0.76448  -31.36028
 H  -16.19899  -1.44356  -32.71910
 H  -15.04679  -3.02889  -30.15128
 H  -15.86009  -3.85110  -31.63633
 H  -18.22393  -2.89530  -30.82158
 H  -17.37482  -2.09190  -29.33305
 C  -14.02128  -2.16731  -32.84724
 C  -12.49370  -1.72924  -32.27632
 C  -11.95949  -0.29111  -32.96987
 H  -11.65864  -0.48850  -34.07048
 H  -11.04489  0.10410  -32.38232
 H  -12.81245  0.48932  -32.93531
 H  -12.54425  -1.59666  -31.13470
 H  -11.74453  -2.56382  -32.53886
 H  -14.11234  -1.74853  -33.92371
 H  -14.01613  -3.32528  -32.91747
 H  14.53030  5.61849  33.34902
 H  18.67687  3.89708  34.45728
 H  -16.75860  -7.70020  -29.70342
 H  -18.14771  -4.04793  -27.23020
*
