# ================================================================
# Orca input file made by Matty Jones
# ================================================================
! ZINDO/S 
! NOPOP
! NOMOPRINT
* xyz 0   1
 C  12.61117  12.08089  0.06767
 C  12.01342  10.87326  -0.29593
 C  12.51517  9.73695  0.41209
 C  13.51418  10.04889  1.33946
 S  13.72117  11.69110  1.23603
 H  11.18481  10.76677  -1.07406
 C  11.91448  8.25708  0.12482
 C  10.22520  7.96354  0.30843
 C  8.80132  8.07516  -0.65074
 H  8.10921  7.25140  -0.20481
 H  8.35438  9.10402  -0.34107
 H  10.20872  6.84705  0.62773
 H  9.95802  8.60938  1.23468
 H  12.45095  7.44114  0.74967
 H  12.11722  8.00474  -1.00176
 C  8.64534  7.98091  -2.27157
 C  8.15018  6.47906  -2.89493
 C  6.48001  6.26015  -3.02893
 H  6.25617  5.13393  -3.17609
 H  6.08658  6.85526  -3.93936
 H  5.96396  6.63575  -2.06417
 H  8.59859  6.37581  -3.95139
 H  8.56675  5.65043  -2.21351
 H  7.86025  8.75828  -2.61880
 H  9.65955  8.23592  -2.76410
 C  -12.00206  -11.78416  -2.12664
 C  -10.88282  -11.32637  -1.42976
 C  -11.10689  -10.12279  -0.69122
 C  -12.40963  -9.62769  -0.80550
 S  -13.20451  -10.69021  -1.80031
 H  -9.86965  -11.85142  -1.47033
 C  -9.84811  -9.54174  0.13609
 C  -9.30571  -7.94555  -0.08979
 C  -9.98022  -6.67142  0.77064
 H  -10.93626  -6.34578  0.21577
 H  -9.22042  -5.79334  0.67641
 H  -8.17486  -7.95086  0.15099
 H  -9.44348  -7.70851  -1.21302
 H  -10.06134  -9.66974  1.27456
 H  -8.90633  -10.19570  -0.10060
 C  -10.27804  -6.90188  2.35321
 C  -9.13404  -6.28706  3.43698
 C  -7.89629  -7.31827  3.91443
 H  -8.07168  -8.37390  3.47677
 H  -7.87742  -7.37602  5.07124
 H  -6.88470  -6.90218  3.53488
 H  -8.65548  -5.35517  2.95509
 H  -9.70790  -5.96690  4.38703
 H  -10.37644  -8.02979  2.58158
 H  -11.28823  -6.39635  2.61525
 H  12.40005  13.04415  -0.32112
 H  14.03097  9.37650  1.97540
 H  -12.06921  -12.64887  -2.73603
 H  -12.80612  -8.75582  -0.35137
*
