# ================================================================
# Orca input file made by Matty Jones
# ================================================================
! ZINDO/S 
! NOPOP
! NOMOPRINT
* xyz 0   1
 C  23.12325  5.25740  -10.97595
 C  22.28937  4.14509  -10.85224
 C  22.82930  3.09779  -10.04236
 C  24.09592  3.38457  -9.52395
 S  24.47579  4.89755  -10.08699
 H  21.18067  4.18672  -11.10638
 C  21.96393  1.75816  -9.83956
 C  20.28989  1.93037  -9.73645
 C  19.74842  1.90238  -11.34782
 H  18.71885  2.42360  -11.37454
 H  20.48237  2.47970  -12.02438
 H  19.83269  1.05639  -9.15097
 H  20.02204  2.93238  -9.24873
 H  22.21049  1.25682  -8.81021
 H  22.22175  0.99972  -10.68092
 C  19.63202  0.38580  -11.92472
 C  19.20708  0.23731  -13.55386
 C  18.92299  1.66883  -14.38906
 H  18.37989  1.42271  -15.38236
 H  19.93118  2.18796  -14.61887
 H  18.25893  2.36993  -13.75257
 H  20.06781  -0.31423  -14.09022
 H  18.24986  -0.40266  -13.61013
 H  20.65049  -0.15120  -11.79916
 H  18.83939  -0.18988  -11.30722
 C  -17.14787  0.02713  9.81196
 C  -18.06999  -0.63992  10.61982
 C  -18.82010  0.21943  11.48187
 C  -18.48861  1.57187  11.35406
 S  -17.30158  1.63239  10.19746
 H  -18.00888  -1.76057  10.81582
 C  -19.94445  -0.36798  12.49578
 C  -21.10776  -1.39012  11.75250
 C  -22.43477  -2.29945  12.34623
 H  -22.74107  -1.81135  13.34848
 H  -23.29624  -2.16153  11.58702
 H  -20.47386  -2.17006  11.23635
 H  -21.59367  -0.69766  10.95696
 H  -20.53782  0.49833  12.99282
 H  -19.43334  -0.98888  13.33272
 C  -22.20937  -3.90000  12.59386
 C  -22.30907  -4.88272  11.20674
 C  -23.80426  -5.46438  10.69319
 H  -23.63939  -6.40398  10.03585
 H  -24.33371  -4.64727  10.06701
 H  -24.45352  -5.73923  11.60874
 H  -21.64440  -5.80527  11.40911
 H  -21.87550  -4.27857  10.33437
 H  -23.01406  -4.28552  13.32991
 H  -21.16583  -4.07324  13.05837
 H  22.93218  6.14506  -11.52289
 H  24.68909  2.76471  -8.90143
 H  -16.48834  -0.40202  9.10171
 H  -18.90818  2.38762  11.88521
*
