# ================================================================
# Orca input file made by Matty Jones
# ================================================================
! ZINDO/S 
! NOPOP
! NOMOPRINT
* xyz 0   1
 C  -5.34085  4.02618  -3.24570
 C  -5.00663  2.86259  -3.94014
 C  -3.72515  2.32741  -3.60008
 C  -3.04404  3.07216  -2.63223
 S  -4.04906  4.33585  -2.25349
 H  -5.61510  2.59762  -4.86759
 C  -3.34272  0.98216  -4.40487
 C  -4.00270  1.07234  -6.00763
 C  -5.60673  0.42867  -5.93986
 H  -5.37400  -0.71484  -6.05115
 H  -5.95802  0.56567  -4.84185
 H  -4.02508  2.15267  -6.38095
 H  -3.36966  0.41963  -6.70456
 H  -3.76527  0.04318  -3.87973
 H  -2.19266  0.87849  -4.51051
 C  -6.94413  0.64182  -6.87579
 C  -7.22647  1.81609  -8.06898
 C  -8.18677  3.12709  -7.60989
 H  -9.23455  3.01577  -8.09147
 H  -7.69799  4.10858  -7.97968
 H  -8.29258  3.15483  -6.45894
 H  -7.75360  1.29422  -8.95214
 H  -6.20654  2.22306  -8.41346
 H  -7.12337  -0.36942  -7.42276
 H  -7.82822  0.78632  -6.12956
 C  2.15645  -3.64787  2.68611
 C  3.05913  -2.89543  3.43904
 C  3.91939  -3.67737  4.27139
 C  3.69485  -5.05419  4.17523
 S  2.46113  -5.22916  3.08081
 H  3.65581  -1.92847  3.12205
 C  5.12695  -3.30342  5.30612
 C  6.56230  -2.46312  4.91564
 C  6.81563  -0.81651  5.12313
 H  7.35829  -0.41178  4.18582
 H  5.79327  -0.29190  5.22531
 H  7.39601  -3.00493  5.51065
 H  6.73538  -2.67350  3.78990
 H  4.65827  -2.64015  6.14551
 H  5.51314  -4.26944  5.82319
 C  7.73243  -0.53515  6.44769
 C  6.90077  -0.70051  7.90494
 C  6.00762  0.66004  8.31402
 H  6.39358  1.57650  7.72207
 H  6.10620  0.86120  9.44902
 H  4.89594  0.47058  8.04892
 H  6.19650  -1.60836  7.83096
 H  7.67612  -0.88614  8.73861
 H  8.62349  -1.27352  6.46858
 H  8.15615  0.54048  6.39920
 H  -6.23251  4.59252  -3.33399
 H  -2.08595  2.87111  -2.22572
 H  1.42940  -3.28494  2.00546
 H  4.20614  -5.82474  4.69335
*
