# ================================================================
# Orca input file made by Matty Jones
# ================================================================
! ZINDO/S 
! NOPOP
! NOMOPRINT
* xyz 0   1
 C  -11.81513  -7.32837  -10.89363
 C  -12.41737  -8.58454  -10.97880
 C  -11.88055  -9.55200  -10.07319
 C  -10.84923  -9.05726  -9.26887
 S  -10.65850  -7.47117  -9.71426
 H  -13.25891  -8.84373  -11.70621
 C  -12.49487  -11.05439  -10.08078
 C  -12.84739  -11.92076  -8.65390
 C  -13.50158  -13.48616  -8.83003
 H  -13.04690  -13.90858  -9.80859
 H  -13.07599  -14.10354  -7.94429
 H  -11.86514  -12.07635  -8.07964
 H  -13.58085  -11.29381  -8.03034
 H  -11.75224  -11.74542  -10.66683
 H  -13.50140  -11.04520  -10.67199
 C  -15.11514  -13.73661  -8.87308
 C  -15.86699  -13.87369  -10.38419
 C  -16.53209  -12.46369  -11.01019
 H  -17.48509  -12.73082  -11.61207
 H  -15.76483  -11.95150  -11.70805
 H  -16.81209  -11.74742  -10.14580
 H  -15.08138  -14.25992  -11.13469
 H  -16.71215  -14.65324  -10.28544
 H  -15.35097  -14.71835  -8.30340
 H  -15.63725  -12.86452  -8.31760
 C  17.89935  11.57606  8.65439
 C  16.56783  11.84986  8.97066
 C  16.34690  12.15958  10.34889
 C  17.50981  12.13020  11.12484
 S  18.73299  11.72821  10.07952
 H  15.72329  11.86337  8.20214
 C  14.97190  12.53830  11.15212
 C  13.42648  11.80496  11.48930
 C  11.82239  11.61880  10.90143
 H  11.13255  11.82617  11.81367
 H  11.66978  12.47800  10.14530
 H  13.75351  10.69986  11.63030
 H  13.21270  12.25761  12.54254
 H  14.60001  13.53291  10.64649
 H  15.30478  12.83489  12.23686
 C  11.36355  10.19851  10.25237
 C  11.03983  10.10915  8.60152
 C  10.97015  11.58545  7.80676
 H  12.01315  12.08463  7.82505
 H  10.19611  12.26833  8.33165
 H  10.64243  11.40962  6.71027
 H  11.86807  9.47551  8.10912
 H  10.02336  9.58015  8.46421
 H  12.18493  9.40901  10.47048
 H  10.39317  9.85414  10.79097
 H  -12.04807  -6.46507  -11.46289
 H  -10.30358  -9.58540  -8.52932
 H  18.29436  11.32399  7.70359
 H  17.59229  12.32423  12.16366
*
