# ================================================================
# Orca input file made by Matty Jones
# ================================================================
! ZINDO/S 
! NOPOP
! NOMOPRINT
* xyz 0   1
 C  11.01971  8.17215  -4.92138
 C  11.92239  8.92460  -4.16846
 C  12.78265  8.14266  -3.33611
 C  12.55811  6.76583  -3.43227
 S  11.32439  6.59086  -4.52668
 H  12.51907  9.89156  -4.48545
 C  13.99021  8.51661  -2.30138
 C  15.42556  9.35690  -2.69185
 C  15.67889  11.00351  -2.48436
 H  16.22155  11.40825  -3.42168
 H  14.65653  11.52812  -2.38219
 H  16.25927  8.81509  -2.09684
 H  15.59864  9.14652  -3.81759
 H  13.52153  9.17987  -1.46199
 H  14.37640  7.55059  -1.78430
 C  16.59569  11.28487  -1.15980
 C  15.76404  11.11952  0.29745
 C  14.87088  12.48007  0.70653
 H  15.25684  13.39652  0.11458
 H  14.96946  12.68122  1.84153
 H  13.75920  12.29061  0.44142
 H  15.05976  10.21166  0.22346
 H  16.53938  10.93388  1.13112
 H  17.48675  10.54651  -1.13891
 H  17.01942  12.36051  -1.20830
 C  -15.61408  -11.97661  -1.77794
 C  -15.02453  -11.52697  -0.59550
 C  -15.83054  -10.60787  0.14602
 C  -17.06277  -10.33036  -0.45391
 S  -17.08978  -11.22420  -1.85061
 H  -14.20043  -12.10303  -0.04352
 C  -15.16423  -10.06319  1.50354
 C  -13.55909  -9.58054  1.14932
 C  -12.43150  -9.02977  2.27125
 H  -12.49887  -7.87304  2.27631
 H  -11.38789  -9.32337  1.85410
 H  -13.03501  -10.47849  0.64655
 H  -13.67151  -8.73513  0.36691
 H  -15.74175  -9.14138  1.89941
 H  -15.13311  -10.89206  2.31043
 C  -12.53719  -9.57767  3.79700
 C  -13.44562  -8.63267  4.85489
 C  -15.03230  -9.13891  5.06558
 H  -15.58159  -9.17463  4.05322
 H  -15.57332  -8.39493  5.76972
 H  -15.03047  -10.19213  5.54754
 H  -12.92273  -8.64145  5.88271
 H  -13.46731  -7.55274  4.44922
 H  -11.47025  -9.66095  4.24230
 H  -13.00693  -10.63687  3.78812
 H  10.29266  8.53508  -5.60203
 H  13.06940  5.99529  -2.91414
 H  -15.20473  -12.65589  -2.48122
 H  -17.82087  -9.68401  -0.09181
*
