# ================================================================
# Orca input file made by Matty Jones
# ================================================================
! ZINDO/S 
! NOPOP
! NOMOPRINT
* xyz 0   1
 C  -9.81704  10.25778  25.98027
 C  -8.59448  10.91134  26.14179
 C  -7.71507  10.28197  27.07710
 C  -8.24592  9.12560  27.65705
 S  -9.75418  8.94526  26.99143
 H  -8.40793  12.06910  26.24687
 C  -6.23901  10.80017  27.48586
 C  -6.03360  12.39125  28.04617
 C  -4.42098  12.85453  28.35669
 H  -4.42368  14.00777  28.18712
 H  -3.80652  12.38834  27.49720
 H  -6.46143  13.10668  27.25527
 H  -6.61984  12.49287  29.03109
 H  -5.80363  10.11840  28.32794
 H  -5.53727  10.69895  26.55657
 C  -3.65878  12.61180  29.78005
 C  -2.00505  13.02249  29.74883
 C  -1.59163  14.61307  30.11213
 H  -0.43729  14.70359  30.14938
 H  -2.03704  14.90618  31.13791
 H  -2.00632  15.31192  29.28860
 H  -1.46638  12.33542  30.50183
 H  -1.59975  12.82388  28.68923
 H  -3.73347  11.49766  30.07493
 H  -4.15674  13.25053  30.60332
 C  7.00045  -7.79434  -31.15563
 C  6.27665  -8.80583  -30.52245
 C  7.08638  -9.74682  -29.81312
 C  8.45646  -9.47701  -29.88657
 S  8.59199  -8.10764  -30.81225
 H  5.13843  -8.88633  -30.55390
 C  6.51570  -11.02730  -28.99519
 C  5.18219  -10.91846  -27.92584
 C  4.80008  -12.36990  -27.09155
 H  4.49160  -11.99340  -26.03336
 H  5.82212  -12.91043  -26.98871
 H  4.26270  -10.62865  -28.55323
 H  5.40895  -10.10568  -27.14843
 H  7.37959  -11.45503  -28.33155
 H  6.22469  -11.85500  -29.75721
 C  3.70061  -13.51961  -27.48547
 C  4.03232  -14.97155  -26.65082
 C  2.98344  -16.27771  -26.82954
 H  2.94834  -16.60152  -27.93875
 H  1.92616  -15.96984  -26.47577
 H  3.36685  -17.15865  -26.18144
 H  5.06520  -15.32593  -27.02878
 H  4.10258  -14.72522  -25.52785
 H  3.70526  -13.72767  -28.61647
 H  2.64510  -13.17785  -27.16071
 H  -10.61706  10.54083  25.34508
 H  -7.78153  8.49608  28.37235
 H  6.61413  -6.99448  -31.73407
 H  9.24361  -10.03160  -29.44338
*
