# ================================================================
# Orca input file made by Matty Jones
# ================================================================
! ZINDO/S 
! NOPOP
! NOMOPRINT
* xyz 0   1
 C  13.13564  4.62876  -5.09809
 C  14.03832  5.38120  -4.34517
 C  14.89857  4.59926  -3.51282
 C  14.67404  3.22244  -3.60898
 S  13.44031  3.04747  -4.70339
 H  14.63499  6.34816  -4.66215
 C  16.10614  4.97321  -2.47808
 C  17.54149  5.81351  -2.86856
 C  17.79482  7.46012  -2.66107
 H  18.33748  7.86485  -3.59838
 H  16.77245  7.98473  -2.55889
 H  18.37520  5.27170  -2.27355
 H  17.71457  5.60313  -3.99430
 H  15.63746  5.63648  -1.63869
 H  16.49233  4.00719  -1.96101
 C  18.71162  7.74148  -1.33651
 C  17.87996  7.57612  0.12074
 C  16.98681  8.93667  0.52982
 H  17.37277  9.85313  -0.06213
 H  17.08538  9.13783  1.66482
 H  15.87512  8.74721  0.26472
 H  17.17569  6.66827  0.04676
 H  18.65531  7.39049  0.95441
 H  19.60268  7.00311  -1.31562
 H  19.13534  8.81711  -1.38500
 C  -18.82639  -10.77653  2.14078
 C  -17.95440  -9.69718  2.29089
 C  -18.51208  -8.59095  3.00469
 C  -19.83108  -8.79784  3.42032
 S  -20.23225  -10.31721  2.89023
 H  -16.86123  -9.69628  1.96469
 C  -17.42675  -7.38282  3.13736
 C  -17.53745  -5.75077  2.66946
 C  -15.97541  -5.09100  2.94456
 H  -15.91643  -4.89355  4.08385
 H  -15.20954  -5.91923  2.68070
 H  -17.79602  -5.67735  1.55640
 H  -18.30642  -5.20078  3.31429
 H  -17.17662  -7.29995  4.28333
 H  -16.43536  -7.72746  2.61700
 C  -15.51277  -3.73557  2.16265
 C  -14.72247  -3.98153  0.67484
 C  -13.04074  -4.11255  0.72295
 H  -12.67991  -4.11278  1.82149
 H  -12.57085  -3.21696  0.15954
 H  -12.72003  -5.09955  0.20952
 H  -15.14029  -4.94932  0.21014
 H  -14.98246  -3.08751  -0.00519
 H  -16.44143  -3.08182  1.94981
 H  -14.78311  -3.14021  2.83448
 H  12.40859  4.99169  -5.77874
 H  15.18532  2.45189  -3.09085
 H  -18.63106  -11.69605  1.65094
 H  -20.44583  -8.12453  3.96100
*
