# ================================================================
# Orca input file made by Matty Jones
# ================================================================
! ZINDO/S 
! NOPOP
! NOMOPRINT
* xyz 0   1
 C  -5.90169  1.51913  -5.01689
 C  -4.75508  2.26667  -4.74423
 C  -3.81459  1.60443  -3.89500
 C  -4.22063  0.32752  -3.49506
 S  -5.70107  0.08844  -4.20327
 H  -4.57260  3.31639  -5.15886
 C  -2.40783  2.33622  -3.49344
 C  -1.63159  2.42871  -1.94757
 C  -0.05198  3.15175  -1.87113
 H  0.40446  2.87939  -2.90354
 H  0.48036  2.49889  -1.06809
 H  -1.53135  1.36632  -1.53999
 H  -2.31012  3.05908  -1.26855
 H  -1.57681  1.86110  -4.16602
 H  -2.49643  3.45942  -3.79870
 C  0.42744  4.69189  -1.55936
 C  1.05240  5.12860  -0.03285
 C  2.73008  5.01941  0.16499
 H  3.07986  3.95090  -0.10444
 H  2.99653  5.24914  1.26801
 H  3.25141  5.78802  -0.52486
 H  0.76242  6.22872  0.15463
 H  0.55899  4.45706  0.75996
 H  -0.47748  5.39040  -1.74085
 H  1.25836  4.96607  -2.31986
 C  -2.07925  -4.83976  -0.64093
 C  -1.17657  -4.08732  0.11199
 C  -0.31631  -4.86925  0.94434
 C  -0.54085  -6.24608  0.84818
 S  -1.77457  -6.42105  -0.24623
 H  -0.57989  -3.12036  -0.20500
 C  0.89125  -4.49531  1.97907
 C  2.32660  -3.65501  1.58860
 C  2.57993  -2.00840  1.79609
 H  3.12259  -1.60366  0.85877
 H  1.55757  -1.48379  1.89826
 H  3.16031  -4.19682  2.18361
 H  2.49968  -3.86539  0.46286
 H  0.42257  -3.83204  2.81846
 H  1.27744  -5.46132  2.49615
 C  3.49673  -1.72704  3.12065
 C  2.66508  -1.89239  4.57790
 C  1.77192  -0.53184  4.98698
 H  2.15788  0.38461  4.39503
 H  1.87050  -0.33069  6.12198
 H  0.66024  -0.72130  4.72187
 H  1.96080  -2.80025  4.50391
 H  3.44042  -2.07803  5.41157
 H  4.38779  -2.46541  3.14154
 H  3.92046  -0.65140  3.07215
 H  -6.72681  1.80561  -5.61748
 H  -3.69272  -0.34651  -2.87008
 H  -2.80630  -4.47683  -1.32158
 H  -0.02956  -7.01662  1.36631
*
