# ================================================================
# Orca input file made by Matty Jones
# ================================================================
! ZINDO/S 
! NOPOP
! NOMOPRINT
* xyz 0   1
 C  -2.43659  2.00549  -2.23190
 C  -3.12121  0.92943  -1.66507
 C  -2.37017  0.21186  -0.68257
 C  -1.08603  0.72389  -0.47253
 S  -0.94937  2.01927  -1.49905
 H  -4.16890  0.59464  -1.97604
 C  -2.95143  -1.05240  0.12690
 C  -3.77418  -2.37364  -0.56641
 C  -5.46711  -2.39103  -0.73045
 H  -5.93183  -2.14755  0.29689
 H  -5.76409  -1.57593  -1.48981
 H  -3.50572  -3.29259  0.08001
 H  -3.34004  -2.51275  -1.62553
 H  -3.68574  -0.65200  0.94777
 H  -2.07280  -1.57777  0.68156
 C  -5.97995  -3.85425  -1.24774
 C  -7.64504  -4.14445  -1.34990
 C  -8.32469  -4.84240  0.02568
 H  -9.22358  -5.50164  -0.28744
 H  -8.68706  -4.00639  0.73887
 H  -7.53618  -5.49678  0.56269
 H  -7.82501  -4.86129  -2.23460
 H  -8.17764  -3.14307  -1.54945
 H  -5.55057  -4.03665  -2.30833
 H  -5.54887  -4.66252  -0.53786
 C  0.02121  0.31373  0.70896
 C  1.18131  1.07282  0.86976
 C  2.04271  0.60898  1.91240
 C  1.56036  -0.52209  2.57826
 S  0.11383  -0.88362  1.85213
 H  1.36411  2.03947  0.29596
 C  3.39492  1.45534  2.14212
 C  4.21468  1.80422  0.68363
 C  5.48967  2.90561  0.83939
 H  5.16448  3.60801  1.70943
 H  5.43140  3.53457  -0.14174
 H  4.65005  0.81060  0.29376
 H  3.47602  2.22992  -0.08550
 H  3.15992  2.45803  2.66352
 H  4.13882  0.85434  2.80947
 C  7.05939  2.55787  1.07074
 C  7.98502  2.59313  -0.34623
 C  8.53510  4.14177  -0.73161
 H  7.70096  4.91143  -0.50608
 H  8.80306  4.18007  -1.85663
 H  9.47184  4.38559  -0.09855
 H  8.90413  1.91631  -0.19013
 H  7.35054  2.19491  -1.21838
 H  7.16368  1.50476  1.53427
 H  7.51645  3.33159  1.80033
 H  -2.79240  2.67314  -2.97435
 H  2.02252  -1.03997  3.37939
*
