# ================================================================
# Orca input file made by Matty Jones
# ================================================================
! ZINDO/S 
! NOPOP
! NOMOPRINT
* xyz 0   1
 C  21.69213  2.13974  29.33649
 C  22.02635  0.97615  28.64205
 C  23.30783  0.44096  28.98211
 C  23.98894  1.18571  29.94997
 S  22.98392  2.44941  30.32871
 H  21.41788  0.71118  27.71460
 C  23.69026  -0.90428  28.17732
 C  23.03028  -0.81410  26.57457
 C  21.42625  -1.45777  26.64233
 H  21.65898  -2.60129  26.53104
 H  21.07496  -1.32077  27.74034
 H  23.00790  0.26622  26.20125
 H  23.66332  -1.46681  25.87764
 H  23.26771  -1.84326  28.70247
 H  24.84032  -1.00795  28.07169
 C  20.08885  -1.24462  25.70640
 C  19.80651  -0.07036  24.51322
 C  18.84621  1.24065  24.97230
 H  17.79843  1.12933  24.49073
 H  19.33499  2.22214  24.60252
 H  18.74040  1.26838  26.12326
 H  19.27938  -0.59222  23.63006
 H  20.82643  0.33662  24.16873
 H  19.90960  -2.25586  25.15943
 H  19.20476  -1.10012  26.45264
 C  -16.46459  -0.29790  -27.21314
 C  -17.54992  -0.99370  -26.67850
 C  -18.59142  -0.15342  -26.17503
 C  -18.32716  1.21278  -26.31282
 S  -16.83972  1.30785  -27.04009
 H  -18.05175  -2.02014  -26.96609
 C  -19.99753  -0.60264  -25.51233
 C  -21.18394  -1.00399  -26.66536
 C  -22.05445  0.36377  -27.21750
 H  -21.47555  1.29599  -26.87325
 H  -21.96480  0.31878  -28.37595
 H  -20.67858  -1.50560  -27.56445
 H  -21.93395  -1.72303  -26.17433
 H  -20.43000  0.19651  -24.79784
 H  -19.82866  -1.56817  -24.87622
 C  -23.63064  0.56844  -26.84380
 C  -24.58871  0.14792  -28.18344
 C  -26.24984  0.04853  -27.95456
 H  -26.48262  -0.87609  -27.29759
 H  -26.76568  -0.07268  -28.98462
 H  -26.63551  1.00621  -27.43536
 H  -24.21672  -0.86750  -28.57990
 H  -24.40800  0.96092  -28.98504
 H  -23.93224  -0.10163  -25.95569
 H  -23.84469  1.67133  -26.57900
 H  20.80047  2.70608  29.24820
 H  24.94703  0.98467  30.35647
 H  -15.58579  -0.70928  -27.63985
 H  -18.94763  2.01889  -26.01482
*
