# ================================================================
# Orca input file made by Matty Jones
# ================================================================
! ZINDO/S 
! NOPOP
! NOMOPRINT
* xyz 0   1
 C  -18.20119  -10.83278  -4.04089
 C  -17.04109  -10.07370  -3.88009
 C  -16.17969  -10.53754  -2.83745
 C  -16.66204  -11.66860  -2.17159
 S  -18.10857  -12.03014  -2.89772
 H  -16.85829  -9.10705  -4.45389
 C  -14.82748  -9.69117  -2.60774
 C  -14.00772  -9.34229  -4.06622
 C  -12.73273  -8.24090  -3.91046
 H  -13.05791  -7.53851  -3.04043
 H  -12.79099  -7.61195  -4.89159
 H  -13.57235  -10.33592  -4.45609
 H  -14.74638  -8.91659  -4.83535
 H  -15.06247  -8.68849  -2.08634
 H  -14.08358  -10.29217  -1.94038
 C  -11.16301  -8.58864  -3.67911
 C  -10.23738  -8.55339  -5.09608
 C  -9.68730  -7.00474  -5.48146
 H  -10.52143  -6.23508  -5.25593
 H  -9.41934  -6.96644  -6.60648
 H  -8.75056  -6.76092  -4.84840
 H  -9.31827  -9.23020  -4.93998
 H  -10.87186  -8.95160  -5.96823
 H  -11.05872  -9.64175  -3.21558
 H  -10.70594  -7.81492  -2.94952
 C  11.64516  5.79293  1.20194
 C  12.22660  6.45474  2.28445
 C  11.38439  7.44073  2.88677
 C  10.13161  7.55807  2.27679
 S  10.13189  6.45128  1.04170
 H  13.28418  6.24398  2.66113
 C  11.80117  8.37473  4.14268
 C  13.11576  9.42108  3.90861
 C  13.53091  10.46664  5.17982
 H  12.55197  10.94436  5.56978
 H  14.00041  9.84227  6.02797
 H  14.03998  8.77933  3.66712
 H  12.85035  10.07984  2.99982
 H  10.90940  8.99731  4.54526
 H  12.13282  7.67207  5.01906
 C  14.54766  11.64854  4.69502
 C  16.21107  11.36305  4.74860
 C  16.66058  9.90802  5.45476
 H  17.80432  9.76765  5.34176
 H  16.11107  9.03456  4.93366
 H  16.38438  9.93029  6.57871
 H  16.60327  11.36460  3.66294
 H  16.70897  12.22245  5.33407
 H  14.29419  11.93086  3.59969
 H  14.35616  12.58256  5.35593
 H  -18.97774  -10.67672  -4.74532
 H  -16.19988  -12.18649  -1.37046
 H  12.07944  5.03022  0.60756
 H  9.34619  8.21656  2.54719
*
