# ================================================================
# Orca input file made by Matty Jones
# ================================================================
! ZINDO/S 
! NOPOP
! NOMOPRINT
* xyz 0   1
 C  -11.47725  -7.51240  -5.54461
 C  -12.16186  -8.58846  -4.97778
 C  -11.41082  -9.30602  -3.99528
 C  -10.12668  -8.79399  -3.78524
 S  -9.99002  -7.49861  -4.81176
 H  -13.20956  -8.92324  -5.28874
 C  -11.99208  -10.57028  -3.18581
 C  -12.81483  -11.89153  -3.87911
 C  -14.50776  -11.90891  -4.04316
 H  -14.97248  -11.66543  -3.01582
 H  -14.80475  -11.09382  -4.80252
 H  -12.54637  -12.81048  -3.23270
 H  -12.38069  -12.03064  -4.93824
 H  -12.72639  -10.16988  -2.36493
 H  -11.11345  -11.09565  -2.63114
 C  -15.02060  -13.37213  -4.56045
 C  -16.68569  -13.66233  -4.66261
 C  -17.36534  -14.36028  -3.28703
 H  -18.26423  -15.01952  -3.60014
 H  -17.72771  -13.52427  -2.57383
 H  -16.57683  -15.01467  -2.75002
 H  -16.86566  -14.37918  -5.54730
 H  -17.21829  -12.66096  -4.86215
 H  -14.59122  -13.55453  -5.62104
 H  -14.58952  -14.18041  -3.85057
 C  18.83271  11.21943  3.90192
 C  17.74739  10.52363  4.43656
 C  16.70589  11.36391  4.94003
 C  16.97015  12.73011  4.80224
 S  18.45758  12.82518  4.07498
 H  17.24555  9.49719  4.14897
 C  15.29978  10.91469  5.60273
 C  14.11337  10.51333  4.44970
 C  13.24286  11.88110  3.89756
 H  13.82175  12.81331  4.24181
 H  13.33250  11.83611  2.73911
 H  14.61873  10.01173  3.55061
 H  13.36335  9.79430  4.94073
 H  14.86731  11.71383  6.31723
 H  15.46864  9.94916  6.23884
 C  11.66666  12.08577  4.27126
 C  10.70859  11.66525  2.93162
 C  9.04746  11.56585  3.16050
 H  8.81469  10.64123  3.81747
 H  8.53162  11.44464  2.13044
 H  8.66180  12.52354  3.67970
 H  11.08058  10.64983  2.53516
 H  10.88931  12.47825  2.13002
 H  11.36506  11.41570  5.15937
 H  11.45261  13.18866  4.53606
 H  -11.83305  -6.84474  -6.28706
 H  -9.39399  -9.15765  -3.11106
 H  19.71151  10.80805  3.47522
 H  16.34967  13.53621  5.10024
*
