# ================================================================
# Orca input file made by Matty Jones
# ================================================================
! ZINDO/S 
! NOPOP
! NOMOPRINT
* xyz 0   1
 C  16.57586  11.64328  0.64562
 C  15.97810  10.43565  0.28201
 C  16.47985  9.29934  0.99003
 C  17.47886  9.61128  1.91740
 S  17.68586  11.25349  1.81398
 H  15.14949  10.32916  -0.49611
 C  15.87917  7.81947  0.70277
 C  14.18989  7.52593  0.88638
 C  12.76601  7.63755  -0.07280
 H  12.07390  6.81379  0.37313
 H  12.31906  8.66641  0.23688
 H  14.17340  6.40944  1.20567
 H  13.92271  8.17177  1.81262
 H  16.41564  7.00353  1.32761
 H  16.08191  7.56713  -0.42382
 C  12.61002  7.54330  -1.69362
 C  12.11487  6.04145  -2.31699
 C  10.44470  5.82253  -2.45099
 H  10.22085  4.69631  -2.59815
 H  10.05127  6.41765  -3.36142
 H  9.92864  6.19814  -1.48622
 H  12.56328  5.93820  -3.37344
 H  12.53143  5.21282  -1.63557
 H  11.82494  8.32067  -2.04085
 H  13.62424  7.79831  -2.18616
 C  -9.09110  -8.26208  0.63124
 C  -10.17466  -8.75353  -0.09832
 C  -11.32365  -7.90275  -0.08185
 C  -11.14647  -6.73360  0.66448
 S  -9.59928  -6.81292  1.25638
 H  -10.60152  -9.83230  0.21425
 C  -12.61250  -8.39910  -0.91608
 C  -14.19709  -8.06786  -0.48377
 C  -14.82143  -9.12503  0.66748
 H  -14.52583  -10.20295  0.37328
 H  -14.33148  -8.86897  1.68342
 H  -14.26282  -6.99322  -0.08708
 H  -14.84636  -8.16190  -1.43554
 H  -12.56554  -9.56813  -1.00396
 H  -12.50646  -7.99036  -2.01080
 C  -16.43892  -9.00993  0.78580
 C  -16.99016  -7.57699  1.48427
 C  -17.32532  -6.40816  0.31619
 H  -16.60162  -6.52444  -0.57872
 H  -17.20058  -5.35578  0.78052
 H  -18.41408  -6.54687  -0.05088
 H  -17.95086  -7.79485  2.07897
 H  -16.17721  -7.16807  2.18857
 H  -16.91301  -9.10300  -0.26545
 H  -16.83016  -9.88142  1.44123
 H  16.36474  12.60653  0.25682
 H  17.99565  8.93889  2.55334
 H  -8.14315  -8.71894  0.75878
 H  -11.85309  -5.95884  0.81946
*
