# ================================================================
# Orca input file made by Matty Jones
# ================================================================
! ZINDO/S 
! NOPOP
! NOMOPRINT
* xyz 0   1
 C  -19.27667  -2.54994  -13.66556
 C  -20.11055  -3.66226  -13.54185
 C  -19.57062  -4.70955  -12.73196
 C  -18.30400  -4.42277  -12.21355
 S  -17.92413  -2.90979  -12.77659
 H  -21.21925  -3.62062  -13.79598
 C  -20.43599  -6.04918  -12.52916
 C  -22.11003  -5.87697  -12.42606
 C  -22.65150  -5.90497  -14.03742
 H  -23.68107  -5.38374  -14.06415
 H  -21.91755  -5.32764  -14.71399
 H  -22.56723  -6.75096  -11.84058
 H  -22.37788  -4.87496  -11.93833
 H  -20.18943  -6.55052  -11.49981
 H  -20.17817  -6.80763  -13.37053
 C  -22.76790  -7.42154  -14.61433
 C  -23.19284  -7.57004  -16.24347
 C  -23.47693  -6.13852  -17.07867
 H  -24.02003  -6.38464  -18.07196
 H  -22.46874  -5.61939  -17.30847
 H  -24.14099  -5.43741  -16.44217
 H  -22.33211  -8.12157  -16.77983
 H  -24.15006  -8.21000  -16.29973
 H  -21.74943  -7.95854  -14.48876
 H  -23.56053  -7.99722  -13.99683
 C  19.25321  1.47536  12.69975
 C  20.00198  2.44932  13.36204
 C  19.21597  3.38881  14.09947
 C  17.83959  3.15552  14.01907
 S  17.66996  1.81794  13.05339
 H  21.14435  2.45226  13.39101
 C  19.89382  4.59175  14.94375
 C  21.19880  5.37981  14.22751
 C  21.97619  6.65304  15.04092
 H  22.09989  6.36976  16.15127
 H  21.33001  7.60327  14.95479
 H  22.00432  4.57399  14.04308
 H  20.83618  5.79955  13.21641
 H  19.10232  5.42934  15.13180
 H  20.26339  4.19709  15.97488
 C  23.42830  6.87455  14.33118
 C  24.36849  8.20842  14.75094
 C  24.12001  9.49084  13.69013
 H  24.86430  10.34119  13.93683
 H  23.03464  9.87489  13.80005
 H  24.29461  9.12620  12.60507
 H  24.09687  8.54476  15.81703
 H  25.47912  7.90587  14.70712
 H  23.27103  6.92133  13.18391
 H  24.07894  5.94063  14.56526
 H  -19.46774  -1.66228  -14.21250
 H  -17.71083  -5.04263  -11.59104
 H  19.61947  0.68359  12.09762
 H  17.06650  3.71620  14.47903
*
