# ================================================================
# Orca input file made by Matty Jones
# ================================================================
! ZINDO/S 
! NOPOP
! NOMOPRINT
* xyz 0   1
 C  -12.97611  12.43388  28.66932
 C  -12.64189  11.27029  27.97487
 C  -11.36041  10.73510  28.31493
 C  -10.67929  11.47985  29.28279
 S  -11.68432  12.74354  29.66153
 H  -13.25035  11.00532  27.04742
 C  -10.97798  9.38985  27.51014
 C  -11.63796  9.48004  25.90739
 C  -13.24199  8.83636  25.97516
 H  -13.00926  7.69285  25.86387
 H  -13.59328  8.97337  27.07317
 H  -11.66034  10.56036  25.53407
 H  -11.00492  8.82733  25.21046
 H  -11.40053  8.45087  28.03529
 H  -9.82792  9.28618  27.40451
 C  -14.57939  9.04951  25.03923
 C  -14.86173  10.22378  23.84604
 C  -15.82203  11.53479  24.30513
 H  -16.86981  11.42347  23.82355
 H  -15.33324  12.51627  23.93534
 H  -15.92784  11.56252  25.45608
 H  -15.38886  9.70192  22.96288
 H  -13.84180  10.63075  23.50156
 H  -14.75863  8.03828  24.49225
 H  -15.46348  9.19401  25.78546
 C  10.09825  -13.24316  -27.60333
 C  10.92026  -12.35672  -26.90590
 C  11.50189  -12.90832  -25.72196
 C  11.13732  -14.23702  -25.48332
 S  10.12871  -14.65357  -26.73217
 H  11.13984  -11.29204  -27.25612
 C  12.51196  -12.11855  -24.72925
 C  13.84280  -11.04154  -25.00289
 C  14.55075  -10.23386  -26.33393
 H  15.69448  -10.37227  -26.26637
 H  14.16143  -10.72950  -27.29891
 H  14.73701  -11.67195  -24.60489
 H  13.64328  -10.19030  -24.24207
 H  13.03015  -12.92772  -24.06329
 H  11.82513  -11.48854  -24.00890
 C  14.19968  -8.63516  -26.34344
 C  14.95398  -7.68654  -27.52899
 C  14.56347  -6.04663  -27.46642
 H  14.22303  -5.76850  -26.39627
 H  13.70794  -5.82889  -28.21497
 H  15.49463  -5.42044  -27.75079
 H  16.09369  -7.78758  -27.39512
 H  14.64584  -8.09179  -28.56122
 H  13.05876  -8.50099  -26.47505
 H  14.50962  -8.18367  -25.32269
 H  -13.86777  13.00022  28.58103
 H  -9.72120  11.27880  29.68929
 H  9.56658  -13.05451  -28.50074
 H  11.44186  -14.84973  -24.67372
*
