# ================================================================
# Orca input file made by Matty Jones
# ================================================================
! ZINDO/S 
! NOPOP
! NOMOPRINT
* xyz 0   1
 C  22.80466  4.77847  2.43539
 C  22.12004  3.70241  3.00221
 C  22.87108  2.98484  3.98471
 C  24.15522  3.49688  4.19475
 S  24.29188  4.79226  3.16823
 H  21.07235  3.36763  2.69125
 C  22.28982  1.72058  4.79419
 C  21.46707  0.39934  4.10088
 C  19.77414  0.38196  3.93683
 H  19.30942  0.62543  4.96417
 H  19.47716  1.19705  3.17748
 H  21.73553  -0.51961  4.74730
 H  21.90121  0.26023  3.04176
 H  21.55551  2.12099  5.61506
 H  23.16845  1.19522  5.34885
 C  19.26130  -1.08126  3.41955
 C  17.59621  -1.37146  3.31739
 C  16.91656  -2.06941  4.69296
 H  16.01767  -2.72865  4.37985
 H  16.55419  -1.23341  5.40616
 H  17.70507  -2.72380  5.22997
 H  17.41624  -2.08831  2.43269
 H  17.06361  -0.37009  3.11784
 H  19.69068  -1.26366  2.35896
 H  19.69238  -1.88954  4.12943
 C  -15.84647  0.30295  -5.59192
 C  -16.87769  -0.53468  -5.16431
 C  -17.95395  0.14820  -4.51652
 C  -17.77164  1.53202  -4.43220
 S  -16.30901  1.83359  -5.15343
 H  -16.86108  -1.66465  -5.32621
 C  -19.12896  -0.85135  -4.03707
 C  -20.74933  -0.67289  -4.46223
 C  -21.79993  0.17102  -3.47337
 H  -21.22209  1.02525  -2.96050
 H  -22.64341  0.61755  -4.12442
 H  -20.75751  -0.14278  -5.49227
 H  -21.17647  -1.73813  -4.60176
 H  -19.13245  -0.85044  -2.86490
 H  -18.86324  -1.94493  -4.36083
 C  -22.42890  -0.82134  -2.33894
 C  -23.76640  -1.76041  -2.78446
 C  -23.41450  -3.32684  -3.29998
 H  -22.67903  -3.81789  -2.55345
 H  -22.94083  -3.29473  -4.35388
 H  -24.39514  -3.94118  -3.33502
 H  -24.31299  -1.22060  -3.64326
 H  -24.46450  -1.83634  -1.87083
 H  -21.60488  -1.55521  -1.98527
 H  -22.75797  -0.17987  -1.43283
 H  22.44885  5.44613  1.69293
 H  24.88791  3.13322  4.86893
 H  -14.95545  0.02019  -6.09165
 H  -18.43038  2.24004  -3.99818
*
