# ================================================================
# Orca input file made by Matty Jones
# ================================================================
! ZINDO/S 
! NOPOP
! NOMOPRINT
* xyz 0   1
 C  -16.38584  -6.69025  -2.25113
 C  -15.22574  -5.93116  -2.09033
 C  -14.36434  -6.39500  -1.04768
 C  -14.84669  -7.52607  -0.38182
 S  -16.29322  -7.88760  -1.10795
 H  -15.04294  -4.96451  -2.66413
 C  -13.01213  -5.54864  -0.81797
 C  -12.19237  -5.19976  -2.27645
 C  -10.91738  -4.09837  -2.12070
 H  -11.24257  -3.39597  -1.25066
 H  -10.97564  -3.46941  -3.10183
 H  -11.75700  -6.19338  -2.66633
 H  -12.93103  -4.77406  -3.04559
 H  -13.24712  -4.54595  -0.29657
 H  -12.26823  -6.14964  -0.15061
 C  -9.34766  -4.44611  -1.88934
 C  -8.42203  -4.41085  -3.30632
 C  -7.87195  -2.86221  -3.69169
 H  -8.70609  -2.09255  -3.46617
 H  -7.60399  -2.82391  -4.81671
 H  -6.93521  -2.61839  -3.05863
 H  -7.50292  -5.08767  -3.15022
 H  -9.05651  -4.80907  -4.17846
 H  -9.24337  -5.49922  -1.42582
 H  -8.89059  -3.67239  -1.15975
 C  15.41046  7.19391  0.48956
 C  14.48835  6.52686  1.29742
 C  13.73824  7.38621  2.15947
 C  14.06973  8.73866  2.03166
 S  15.25676  8.79917  0.87506
 H  14.54946  5.40622  1.49342
 C  12.61389  6.79881  3.17338
 C  11.45058  5.77667  2.43010
 C  10.12357  4.86734  3.02383
 H  9.81726  5.35544  4.02608
 H  9.26210  5.00526  2.26462
 H  12.08447  4.99672  1.91395
 H  10.96467  6.46912  1.63456
 H  12.02052  7.66512  3.67042
 H  13.12500  6.17791  4.01031
 C  10.34896  3.26679  3.27146
 C  10.24927  2.28406  1.88434
 C  8.75408  1.70240  1.37079
 H  8.91895  0.76281  0.71345
 H  8.22463  2.51952  0.74461
 H  8.10482  1.42755  2.28634
 H  10.91394  1.36152  2.08671
 H  10.68284  2.88821  1.01197
 H  9.54427  2.88126  4.00751
 H  11.39251  3.09355  3.73597
 H  -17.16239  -6.53419  -2.95556
 H  -14.38453  -8.04395  0.41930
 H  16.06999  6.76477  -0.22069
 H  13.65016  9.55440  2.56281
*
