# ================================================================
# Orca input file made by Matty Jones
# ================================================================
! ZINDO/S 
! NOPOP
! NOMOPRINT
* xyz 0   1
 C  -15.20750  13.07443  24.21050
 C  -14.06088  13.82197  24.48316
 C  -13.12040  13.15973  25.33239
 C  -13.52643  11.88282  25.73233
 S  -15.00688  11.64374  25.02413
 H  -13.87841  14.87169  24.06853
 C  -11.71364  13.89152  25.73395
 C  -10.93740  13.98401  27.27982
 C  -9.35779  14.70705  27.35626
 H  -8.90134  14.43469  26.32385
 H  -8.82545  14.05419  28.15930
 H  -10.83716  12.92162  27.68740
 H  -11.61593  14.61438  27.95884
 H  -10.88262  13.41640  25.06137
 H  -11.80224  15.01472  25.42869
 C  -8.87836  16.24719  27.66803
 C  -8.25341  16.68390  29.19454
 C  -6.57572  16.57471  29.39238
 H  -6.22595  15.50620  29.12295
 H  -6.30927  16.80444  30.49540
 H  -6.05440  17.34332  28.70253
 H  -8.54339  17.78402  29.38202
 H  -8.74682  16.01236  29.98735
 H  -9.78329  16.94570  27.48654
 H  -8.04745  16.52137  26.90753
 C  6.08659  -15.58028  -26.20880
 C  7.41324  -15.38056  -26.59352
 C  8.37297  -15.93123  -25.68801
 C  7.80125  -16.56899  -24.58269
 S  6.16148  -16.42009  -24.78114
 H  7.88598  -14.38499  -27.02331
 C  9.96661  -15.80625  -25.91607
 C  10.47260  -14.20241  -26.17882
 C  12.09450  -13.77688  -26.42997
 H  12.70172  -14.75419  -26.51948
 H  12.45557  -13.20527  -25.49108
 H  9.90812  -13.83773  -27.11524
 H  10.11518  -13.59775  -25.26142
 H  10.55255  -16.16452  -24.98058
 H  10.29439  -16.44176  -26.82802
 C  12.31070  -12.84135  -27.74807
 C  12.86135  -13.52522  -29.19159
 C  13.66745  -14.99075  -29.03920
 H  14.44194  -14.91429  -28.18176
 H  14.21764  -15.22419  -30.03105
 H  12.90771  -15.83131  -28.80831
 H  11.94656  -13.69417  -29.87395
 H  13.57581  -12.77130  -29.69255
 H  11.30823  -12.31626  -28.00255
 H  13.07869  -12.01453  -27.47360
 H  -16.03261  13.36091  23.60991
 H  -12.99852  11.20879  26.35731
 H  5.21493  -15.26216  -26.72126
 H  8.30953  -17.04744  -23.78498
*
