# ================================================================
# Orca input file made by Matty Jones
# ================================================================
! ZINDO/S 
! NOPOP
! NOMOPRINT
* xyz 0   1
 C  16.08020  6.90610  4.37346
 C  15.39558  5.83004  4.94029
 C  16.14662  5.11247  5.92279
 C  17.43076  5.62451  6.13283
 S  17.56742  6.91989  5.10631
 H  14.34789  5.49526  4.62933
 C  15.56536  3.84822  6.73226
 C  14.74261  2.52697  6.03895
 C  13.04968  2.50959  5.87491
 H  12.58496  2.75307  6.90225
 H  12.75270  3.32468  5.11555
 H  15.01107  1.60802  6.68537
 H  15.17676  2.38786  4.97983
 H  14.83105  4.24862  7.55313
 H  16.44400  3.32285  7.28692
 C  12.53684  1.04637  5.35762
 C  10.87175  0.75617  5.25546
 C  10.19210  0.05822  6.63104
 H  9.29321  -0.60102  6.31792
 H  9.82973  0.89422  7.34423
 H  10.98062  -0.59617  7.16805
 H  10.69178  0.03932  4.37076
 H  10.33915  1.75754  5.05591
 H  12.96622  0.86397  4.29703
 H  12.96793  0.23809  6.06750
 C  -15.75339  -6.30905  -8.84197
 C  -14.63416  -5.85126  -8.14509
 C  -14.85823  -4.64768  -7.40655
 C  -16.16097  -4.15258  -7.52083
 S  -16.95584  -5.21510  -8.51565
 H  -13.62099  -6.37631  -8.18567
 C  -13.59944  -4.06663  -6.57925
 C  -13.05704  -2.47044  -6.80513
 C  -13.73155  -1.19631  -5.94469
 H  -14.68759  -0.87067  -6.49957
 H  -12.97176  -0.31823  -6.03892
 H  -11.92619  -2.47575  -6.56435
 H  -13.19481  -2.23339  -7.92836
 H  -13.81267  -4.19463  -5.44078
 H  -12.65766  -4.72059  -6.81594
 C  -14.02937  -1.42677  -4.36212
 C  -12.88538  -0.81194  -3.27836
 C  -11.64762  -1.84315  -2.80090
 H  -11.82301  -2.89879  -3.23856
 H  -11.62876  -1.90091  -1.64409
 H  -10.63603  -1.42707  -3.18045
 H  -12.40681  0.11994  -3.76025
 H  -13.45923  -0.49179  -2.32831
 H  -14.12777  -2.55468  -4.13376
 H  -15.03956  -0.92124  -4.10009
 H  15.72439  7.57376  3.63101
 H  18.16346  5.26085  6.80700
 H  -15.82055  -7.17376  -9.45137
 H  -16.55745  -3.28070  -7.06671
*
