# ================================================================
# Orca input file made by Matty Jones
# ================================================================
! ZINDO/S 
! NOPOP
! NOMOPRINT
* xyz 0   1
 C  15.03613  2.42747  -8.27956
 C  15.93881  3.17991  -7.52663
 C  16.79907  2.39797  -6.69428
 C  16.57454  1.02115  -6.79044
 S  15.34081  0.84618  -7.88486
 H  16.53549  4.14687  -7.84362
 C  18.00663  2.77192  -5.65955
 C  19.44198  3.61221  -6.05002
 C  19.69531  5.25882  -5.84253
 H  20.23797  5.66356  -6.77985
 H  18.67295  5.78344  -5.74036
 H  20.27569  3.07040  -5.45502
 H  19.61506  3.40184  -7.17576
 H  17.53796  3.43519  -4.82016
 H  18.39283  1.80590  -5.14247
 C  20.61211  5.54019  -4.51797
 C  19.78046  5.37483  -3.06072
 C  18.88731  6.73538  -2.65164
 H  19.27326  7.65184  -3.24360
 H  18.98588  6.93654  -1.51664
 H  17.77562  6.54592  -2.91675
 H  19.07619  4.46698  -3.13471
 H  20.55580  5.18920  -2.22705
 H  21.50317  4.80182  -4.49709
 H  21.03584  6.61582  -4.56647
 C  -20.95438  -7.42034  3.69845
 C  -20.10875  -6.43998  4.21969
 C  -20.76261  -5.50011  5.07604
 C  -22.13146  -5.73949  5.23177
 S  -22.45615  -7.08255  4.31464
 H  -18.98774  -6.39223  4.00559
 C  -19.96688  -4.29380  5.77813
 C  -18.90326  -3.42252  4.79501
 C  -18.22143  -2.11603  5.62291
 H  -19.08172  -1.60081  6.20408
 H  -17.84137  -1.37737  4.81437
 H  -18.05880  -4.12283  4.44978
 H  -19.48401  -3.02411  3.88588
 H  -20.65588  -3.47778  6.20357
 H  -19.33393  -4.72201  6.66311
 C  -17.00874  -2.43158  6.65818
 C  -15.46156  -2.54352  5.99734
 C  -15.00804  -4.12507  5.64436
 H  -13.96738  -4.33118  6.10856
 H  -14.95553  -4.26316  4.49684
 H  -15.77916  -4.86560  6.08722
 H  -15.43246  -1.92967  5.02250
 H  -14.71019  -2.10410  6.75202
 H  -17.23013  -3.42263  7.21360
 H  -16.97046  -1.58058  7.44640
 H  14.30908  2.79040  -8.96020
 H  17.08582  0.25060  -6.27232
 H  -20.69189  -8.21358  3.04617
 H  -22.81787  -5.17972  5.81409
*
