# ================================================================
# Orca input file made by Matty Jones
# ================================================================
! ZINDO/S 
! NOPOP
! NOMOPRINT
* xyz 0   1
 C  -27.73369  2.54509  -10.92870
 C  -26.58708  3.29264  -10.65604
 C  -25.64659  2.63040  -9.80681
 C  -26.05263  1.35349  -9.40687
 S  -27.53307  1.11441  -10.11507
 H  -26.40461  4.34236  -11.07067
 C  -24.23983  3.36218  -9.40525
 C  -23.46359  3.45468  -7.85938
 C  -21.88399  4.17772  -7.78294
 H  -21.42754  3.90536  -8.81535
 H  -21.35164  3.52486  -6.97989
 H  -23.36335  2.39229  -7.45180
 H  -24.14212  4.08505  -7.18036
 H  -23.40882  2.88707  -10.07782
 H  -24.32843  4.48539  -9.71051
 C  -21.40456  5.71786  -7.47117
 C  -20.77960  6.15456  -5.94465
 C  -19.10192  6.04538  -5.74682
 H  -18.75214  4.97686  -6.01624
 H  -18.83547  6.27511  -4.64379
 H  -18.58059  6.81399  -6.43667
 H  -21.06958  7.25468  -5.75718
 H  -21.27301  5.48303  -5.15185
 H  -22.30948  6.41637  -7.65266
 H  -20.57365  5.99204  -8.23167
 C  21.33244  -7.93186  9.92448
 C  21.38052  -6.72401  9.22686
 C  20.95172  -5.59245  9.98841
 C  20.56308  -5.90837  11.29396
 S  20.76758  -7.54808  11.43536
 H  21.45552  -6.71427  8.08558
 C  21.00739  -4.17836  9.20248
 C  22.48866  -4.11493  8.31302
 C  23.02322  -2.88718  7.27283
 H  23.27401  -1.95636  7.90749
 H  22.16013  -2.63545  6.54867
 H  23.31233  -4.22078  9.11649
 H  22.49902  -5.04298  7.63144
 H  20.13519  -4.08719  8.44619
 H  20.98430  -3.28379  9.93472
 C  24.33784  -3.35920  6.42053
 C  25.86541  -2.92113  6.99145
 C  26.39963  -1.48300  6.29790
 H  26.70047  -1.68039  5.19729
 H  27.31423  -1.08779  6.88546
 H  25.54667  -0.70257  6.33246
 H  25.81487  -2.78855  8.13307
 H  26.61459  -3.75571  6.72891
 H  24.24678  -2.94042  5.34406
 H  24.34298  -4.51717  6.35030
 H  -28.55881  2.83158  -11.52929
 H  -25.52472  0.67946  -8.78189
 H  21.60052  -8.89209  9.56435
 H  20.21140  -5.23982  12.03757
*
