# ================================================================
# Orca input file made by Matty Jones
# ================================================================
! ZINDO/S 
! NOPOP
! NOMOPRINT
* xyz 0   1
 C  -11.56110  17.21958  26.42724
 C  -11.22689  16.05600  25.73279
 C  -9.94540  15.52081  26.07286
 C  -9.26429  16.26556  27.04071
 S  -10.26931  17.52925  27.41945
 H  -11.83535  15.79102  24.80535
 C  -9.56297  14.17556  25.26807
 C  -10.22296  14.26575  23.66531
 C  -11.82698  13.62207  23.73308
 H  -11.59425  12.47856  23.62179
 H  -12.17828  13.75907  24.83109
 H  -10.24533  15.34607  23.29199
 H  -9.58991  13.61303  22.96838
 H  -9.98552  13.23658  25.79321
 H  -8.41291  14.07189  25.16243
 C  -13.16438  13.83522  22.79715
 C  -13.44672  15.00949  21.60396
 C  -14.40702  16.32050  22.06305
 H  -15.45480  16.20918  21.58147
 H  -13.91824  17.30198  21.69326
 H  -14.51283  16.34823  23.21400
 H  -13.97386  14.48763  20.72080
 H  -12.42680  15.41646  21.25948
 H  -13.34363  12.82399  22.25017
 H  -14.04847  13.97972  23.54338
 C  12.82620  -10.50696  -26.47208
 C  12.57581  -11.87879  -26.52927
 C  12.85971  -12.57531  -25.31333
 C  13.33668  -11.74930  -24.29082
 S  13.38141  -10.22213  -24.93594
 H  12.16480  -12.40633  -27.45594
 C  12.62689  -14.18393  -25.22531
 C  12.24256  -15.21309  -23.88558
 C  10.66373  -15.45890  -23.31172
 H  10.31732  -14.45035  -22.86074
 H  10.00122  -15.70434  -24.22540
 H  12.94391  -15.03106  -23.01128
 H  12.52736  -16.26706  -24.30516
 H  13.60135  -14.68268  -25.64090
 H  11.76571  -14.44371  -25.97273
 C  10.48175  -16.62254  -22.17702
 C  10.08912  -18.16304  -22.77209
 C  11.39384  -19.17155  -23.10535
 H  12.33686  -18.53355  -23.30855
 H  11.15155  -19.81386  -24.03745
 H  11.58201  -19.86499  -22.19739
 H  9.48828  -18.02373  -23.74576
 H  9.42657  -18.68671  -21.98701
 H  11.45975  -16.72677  -21.56933
 H  9.63070  -16.31742  -21.45428
 H  -12.45276  17.78593  26.33895
 H  -8.30620  16.06451  27.44722
 H  12.69011  -9.79689  -27.24724
 H  13.61202  -12.03865  -23.30896
*
