# ================================================================
# Orca input file made by Matty Jones
# ================================================================
! ZINDO/S 
! NOPOP
! NOMOPRINT
* xyz 0   1
 C  -7.37000  7.24816  37.19169
 C  -7.03579  6.08457  36.49725
 C  -5.75430  5.54938  36.83731
 C  -5.07319  6.29413  37.80517
 S  -6.07821  7.55783  38.18390
 H  -7.64425  5.81960  35.56980
 C  -5.37187  4.20414  36.03252
 C  -6.03186  4.29432  34.42976
 C  -7.63588  3.65065  34.49753
 H  -7.40315  2.50713  34.38624
 H  -7.98718  3.78765  35.59554
 H  -6.05423  5.37464  34.05644
 H  -5.39881  3.64161  33.73283
 H  -5.79442  3.26516  36.55766
 H  -4.22181  4.10046  35.92688
 C  -8.97328  3.86380  33.56160
 C  -9.25562  5.03806  32.36841
 C  -10.21593  6.34907  32.82750
 H  -11.26370  6.23775  32.34593
 H  -9.72714  7.33056  32.45771
 H  -10.32173  6.37680  33.97845
 H  -9.78276  4.51620  31.48525
 H  -8.23570  5.44504  32.02393
 H  -9.15253  2.85256  33.01463
 H  -9.85737  4.00830  34.30783
 C  3.03441  -6.92254  -37.19117
 C  4.25697  -6.26898  -37.02965
 C  5.13638  -6.89835  -36.09434
 C  4.60553  -8.05472  -35.51439
 S  3.09727  -8.23506  -36.18001
 H  4.44352  -5.11122  -36.92457
 C  6.61244  -6.38015  -35.68558
 C  6.81785  -4.78907  -35.12527
 C  8.43047  -4.32579  -34.81475
 H  8.42777  -3.17255  -34.98432
 H  9.04493  -4.79198  -35.67424
 H  6.39002  -4.07364  -35.91617
 H  6.23161  -4.68745  -34.14036
 H  7.04782  -7.06192  -34.84350
 H  7.31417  -6.48137  -36.61487
 C  9.19267  -4.56852  -33.39139
 C  10.84640  -4.15783  -33.42261
 C  11.25982  -2.56725  -33.05931
 H  12.41416  -2.47673  -33.02206
 H  10.81441  -2.27414  -32.03353
 H  10.84513  -1.86840  -33.88284
 H  11.38507  -4.84490  -32.66961
 H  11.25170  -4.35644  -34.48221
 H  9.11798  -5.68266  -33.09651
 H  8.69471  -3.92979  -32.56812
 H  -8.26166  7.81450  37.10340
 H  -4.11510  6.09309  38.21167
 H  2.23439  -6.63949  -37.82636
 H  5.06992  -8.68424  -34.79910
*
