# ================================================================
# Orca input file made by Matty Jones
# ================================================================
! ZINDO/S 
! NOPOP
! NOMOPRINT
* xyz 0   1
 C  -17.38758  -5.66727  -11.37737
 C  -17.98534  -6.87490  -11.74098
 C  -17.48359  -8.01121  -11.03296
 C  -16.48458  -7.69927  -10.10559
 S  -16.27758  -6.05705  -10.20902
 H  -18.81395  -6.98138  -12.51910
 C  -18.08427  -9.49108  -11.32022
 C  -19.77355  -9.78461  -11.13662
 C  -21.19743  -9.67300  -12.09579
 H  -21.88954  -10.49676  -11.64986
 H  -21.64438  -8.64413  -11.78612
 H  -19.79004  -10.90110  -10.81732
 H  -20.04073  -9.13877  -10.21037
 H  -17.54780  -10.30701  -10.69538
 H  -17.88153  -9.74341  -12.44681
 C  -21.35342  -9.76725  -13.71661
 C  -21.84857  -11.26910  -14.33998
 C  -23.51874  -11.48801  -14.47398
 H  -23.74259  -12.61423  -14.62114
 H  -23.91217  -10.89289  -15.38441
 H  -24.03480  -11.11241  -13.50922
 H  -21.40016  -11.37235  -15.39644
 H  -21.43201  -12.09772  -13.65856
 H  -22.13850  -8.98988  -14.06385
 H  -20.33920  -9.51223  -14.20915
 C  17.69826  5.13082  10.90268
 C  18.44703  6.10478  11.56498
 C  17.66102  7.04427  12.30241
 C  16.28463  6.81098  12.22200
 S  16.11501  5.47340  11.25633
 H  19.58940  6.10772  11.59395
 C  18.33887  8.24721  13.14669
 C  19.64385  9.03527  12.43045
 C  20.42124  10.30850  13.24386
 H  20.54493  10.02522  14.35420
 H  19.77505  11.25873  13.15773
 H  20.44937  8.22945  12.24602
 H  19.28122  9.45501  11.41935
 H  17.54737  9.08480  13.33474
 H  18.70844  7.85255  14.17782
 C  21.87335  10.53001  12.53412
 C  22.81354  11.86388  12.95388
 C  22.56506  13.14630  11.89307
 H  23.30934  13.99665  12.13977
 H  21.47969  13.53035  12.00299
 H  22.73966  12.78166  10.80801
 H  22.54192  12.20022  14.01997
 H  23.92417  11.56132  12.91006
 H  21.71608  10.57679  11.38685
 H  22.52399  9.59609  12.76820
 H  -17.59870  -4.70401  -11.76617
 H  -15.96779  -8.37166  -9.46965
 H  18.06452  4.33905  10.30056
 H  15.51155  7.37166  12.68197
*
