# ================================================================
# Orca input file made by Matty Jones
# ================================================================
! ZINDO/S 
! NOPOP
! NOMOPRINT
* xyz 0   1
 C  4.73713  -5.48448  -4.98087
 C  5.85637  -5.02669  -4.28400
 C  5.63230  -3.82311  -3.54545
 C  4.32956  -3.32801  -3.65974
 S  3.53468  -4.39053  -4.65455
 H  6.86954  -5.55174  -4.32457
 C  6.89109  -3.24206  -2.71815
 C  7.43349  -1.64587  -2.94403
 C  6.75897  -0.37174  -2.08359
 H  5.80293  -0.04610  -2.63847
 H  7.51877  0.50635  -2.17782
 H  8.56434  -1.65118  -2.70325
 H  7.29571  -1.40882  -4.06726
 H  6.67786  -3.37006  -1.57968
 H  7.83287  -3.89601  -2.95484
 C  6.46116  -0.60219  -0.50102
 C  7.60515  0.01263  0.58274
 C  8.84290  -1.01858  1.06020
 H  8.66751  -2.07422  0.62254
 H  8.86177  -1.07633  2.21701
 H  9.85449  -0.60250  0.68065
 H  8.08371  0.94451  0.10085
 H  7.03129  0.33279  1.53279
 H  6.36275  -1.73011  -0.27266
 H  5.45096  -0.09667  -0.23899
 C  -2.08040  3.25515  0.20725
 C  -3.11162  2.41753  0.63487
 C  -4.18788  3.10040  1.28266
 C  -4.00557  4.48422  1.36698
 S  -2.54294  4.78580  0.64575
 H  -3.09501  1.28755  0.47296
 C  -5.36289  2.10085  1.76211
 C  -6.98326  2.27931  1.33695
 C  -8.03386  3.12322  2.32580
 H  -7.45602  3.97746  2.83868
 H  -8.87734  3.56975  1.67475
 H  -6.99144  2.80943  0.30691
 H  -7.41040  1.21408  1.19741
 H  -5.36638  2.10176  2.93427
 H  -5.09718  1.00728  1.43834
 C  -8.66283  2.13086  3.46024
 C  -10.00033  1.19180  3.01471
 C  -9.64844  -0.37464  2.49919
 H  -8.91296  -0.86569  3.24573
 H  -9.17477  -0.34252  1.44530
 H  -10.62907  -0.98898  2.46415
 H  -10.54692  1.73160  2.15592
 H  -10.69843  1.11587  3.92834
 H  -7.83881  1.39699  3.81390
 H  -8.99191  2.77233  4.36635
 H  4.66998  -6.34919  -5.59027
 H  3.93308  -2.45613  -3.20561
 H  -1.18938  2.97239  -0.29248
 H  -4.66431  5.19224  1.80100
*
