# ================================================================
# Orca input file made by Matty Jones
# ================================================================
! ZINDO/S 
! NOPOP
! NOMOPRINT
* xyz 0   1
 C  21.09880  8.45619  12.78844
 C  20.84841  7.08435  12.73124
 C  21.13231  6.38783  13.94718
 C  21.60929  7.21385  14.96969
 S  21.65402  8.74102  14.32457
 H  20.43740  6.55681  11.80458
 C  20.89949  4.77921  14.03521
 C  20.51517  3.75005  15.37494
 C  18.93633  3.50424  15.94879
 H  18.58993  4.51279  16.39977
 H  18.27383  3.25880  15.03512
 H  21.21652  3.93208  16.24923
 H  20.79996  2.69608  14.95536
 H  21.87395  4.28046  13.61962
 H  20.03832  4.51943  13.28779
 C  18.75436  2.34060  17.08349
 C  18.36172  0.80010  16.48843
 C  19.66645  -0.20840  16.15516
 H  20.60946  0.42959  15.95196
 H  19.42416  -0.85071  15.22307
 H  19.85462  -0.90185  17.06312
 H  17.76089  0.93941  15.51475
 H  17.69917  0.27644  17.27350
 H  19.73235  2.23638  17.69118
 H  17.90331  2.64573  17.80624
 C  -19.04070  0.02981  -17.01237
 C  -18.93995  -1.10092  -16.20046
 C  -18.78690  -0.80897  -14.80920
 C  -18.76669  0.55921  -14.52107
 S  -18.93686  1.32491  -15.98230
 H  -18.53849  -2.07560  -16.66222
 C  -18.70814  -2.17332  -13.93009
 C  -20.04409  -3.15514  -14.53187
 C  -20.79704  -4.69414  -14.38192
 H  -21.93348  -4.50938  -14.30060
 H  -20.41234  -5.17263  -13.40723
 H  -19.81200  -3.22161  -15.65960
 H  -20.93307  -2.43167  -14.36160
 H  -18.87801  -1.97100  -12.80976
 H  -17.72128  -2.74133  -14.10567
 C  -20.50059  -5.69092  -15.64610
 C  -21.55992  -7.00529  -15.80725
 C  -21.11746  -8.39918  -14.98475
 H  -20.04894  -8.71056  -15.30109
 H  -21.86167  -9.24779  -15.24297
 H  -21.14363  -8.19367  -13.84615
 H  -21.62823  -7.26407  -16.93000
 H  -22.59835  -6.67693  -15.43000
 H  -19.42939  -6.11520  -15.55472
 H  -20.57755  -5.09324  -16.63461
 H  20.96271  9.16626  12.01328
 H  21.88462  6.92449  15.95156
 H  -19.15871  0.05525  -18.06547
 H  -18.66410  1.01212  -13.56821
*
