# ================================================================
# Orca input file made by Matty Jones
# ================================================================
! ZINDO/S 
! NOPOP
! NOMOPRINT
* xyz 0   1
 C  26.01921  1.83494  8.50409
 C  25.76882  0.46311  8.44689
 C  26.05272  -0.23341  9.66283
 C  26.52970  0.59260  10.68534
 S  26.57443  2.11977  10.04022
 H  25.35781  -0.06444  7.52022
 C  25.81990  -1.84203  9.75085
 C  25.43557  -2.87119  11.09058
 C  23.85674  -3.11700  11.66444
 H  23.51034  -2.10845  12.11542
 H  23.19424  -3.36244  10.75076
 H  26.13693  -2.68916  11.96488
 H  25.72037  -3.92516  10.67100
 H  26.79436  -2.34078  9.33526
 H  24.95873  -2.10181  9.00343
 C  23.67477  -4.28064  12.79914
 C  23.28213  -5.82114  12.20407
 C  24.58686  -6.82965  11.87081
 H  25.52987  -6.19165  11.66761
 H  24.34457  -7.47196  10.93871
 H  24.77503  -7.52309  12.77877
 H  22.68130  -5.68183  11.23040
 H  22.61958  -6.34481  12.98915
 H  24.65276  -4.38487  13.40683
 H  22.82372  -3.97552  13.52189
 C  -20.29626  3.91650  -12.62007
 C  -21.32749  3.07887  -12.19246
 C  -22.40374  3.76174  -11.54467
 C  -22.22144  5.14557  -11.46035
 S  -20.75880  5.44714  -12.18158
 H  -21.31088  1.94889  -12.35436
 C  -23.57876  2.76219  -11.06522
 C  -25.19913  2.94065  -11.49038
 C  -26.24973  3.78457  -10.50152
 H  -25.67188  4.63880  -9.98865
 H  -27.09321  4.23110  -11.15257
 H  -25.20730  3.47077  -12.52042
 H  -25.62627  1.87542  -11.62991
 H  -23.58224  2.76311  -9.89305
 H  -23.31304  1.66862  -11.38898
 C  -26.87869  2.79221  -9.36709
 C  -28.21619  1.85314  -9.81261
 C  -27.86430  0.28671  -10.32813
 H  -27.12883  -0.20435  -9.58160
 H  -27.39063  0.31882  -11.38203
 H  -28.84493  -0.32763  -10.36317
 H  -28.76279  2.39295  -10.67140
 H  -28.91429  1.77721  -8.89898
 H  -26.05467  2.05833  -9.01342
 H  -27.20777  3.43367  -8.46097
 H  25.88312  2.54501  7.72892
 H  26.80503  0.30325  11.66720
 H  -19.40524  3.63374  -13.11980
 H  -22.88017  5.85359  -11.02632
*
