# ================================================================
# Orca input file made by Matty Jones
# ================================================================
! ZINDO/S 
! NOPOP
! NOMOPRINT
* xyz 0   1
 C  28.96798  -8.71445  0.55546
 C  29.78998  -7.82801  1.25290
 C  30.37162  -8.37960  2.43684
 C  30.00705  -9.70830  2.67547
 S  28.99844  -10.12486  1.42663
 H  30.00956  -6.76332  0.90268
 C  31.38169  -7.58983  3.42954
 C  32.71253  -6.51282  3.15591
 C  33.42048  -5.70514  1.82487
 H  34.56420  -5.84355  1.89242
 H  33.03116  -6.20079  0.85988
 H  33.60673  -7.14323  3.55390
 H  32.51301  -5.66158  3.91672
 H  31.89988  -8.39901  4.09550
 H  30.69485  -6.95982  4.14989
 C  33.06941  -4.10644  1.81536
 C  33.82371  -3.15782  0.62980
 C  33.43319  -1.51791  0.69237
 H  33.09276  -1.23978  1.76252
 H  32.57766  -1.30017  -0.05618
 H  34.36435  -0.89172  0.40800
 H  34.96341  -3.25886  0.76368
 H  33.51556  -3.56307  -0.40243
 H  31.92849  -3.97227  1.68374
 H  33.37935  -3.65496  2.83610
 C  -28.31896  7.98554  -3.48651
 C  -29.24108  7.31849  -2.67864
 C  -29.99118  8.17784  -1.81660
 C  -29.65969  9.53028  -1.94441
 S  -28.47266  9.59080  -3.10101
 H  -29.17996  6.19784  -2.48265
 C  -31.11554  7.59043  -0.80269
 C  -32.27884  6.56830  -1.54597
 C  -33.60586  5.65896  -0.95224
 H  -33.91216  6.14706  0.05001
 H  -34.46732  5.79688  -1.71145
 H  -31.64495  5.78835  -2.06211
 H  -32.76475  7.26075  -2.34150
 H  -31.70890  8.45674  -0.30565
 H  -30.60442  6.96953  0.03425
 C  -33.38046  4.05842  -0.70460
 C  -33.48015  3.07569  -2.09173
 C  -34.97534  2.49403  -2.60528
 H  -34.81047  1.55443  -3.26262
 H  -35.50479  3.31114  -3.23146
 H  -35.62461  2.21918  -1.68973
 H  -32.81549  2.15314  -1.88935
 H  -33.04658  3.67984  -2.96409
 H  -34.18515  3.67289  0.03145
 H  -32.33692  3.88517  -0.24010
 H  28.43631  -8.52579  -0.34195
 H  30.31158  -10.32101  3.48507
 H  -27.65943  7.55639  -4.19676
 H  -30.07926  10.34603  -1.41326
*
