# ================================================================
# Orca input file made by Matty Jones
# ================================================================
! ZINDO/S 
! NOPOP
! NOMOPRINT
* xyz 0   1
 C  -14.84515  -0.61189  11.56398
 C  -15.56894  -1.62338  12.19716
 C  -14.75922  -2.56437  12.90649
 C  -13.38914  -2.29456  12.83304
 S  -13.25360  -0.92520  11.90736
 H  -16.70716  -1.70388  12.16571
 C  -15.32989  -3.84485  13.72442
 C  -16.66340  -3.73601  14.79377
 C  -17.04551  -5.18745  15.62806
 H  -17.35399  -4.81096  16.68625
 H  -16.02347  -5.72798  15.73090
 H  -17.58290  -3.44620  14.16638
 H  -16.43664  -2.92323  15.57118
 H  -14.46600  -4.27259  14.38806
 H  -15.62091  -4.67255  12.96240
 C  -18.14498  -6.33716  15.23414
 C  -17.81327  -7.78910  16.06879
 C  -18.86215  -9.09526  15.89007
 H  -18.89726  -9.41907  14.78086
 H  -19.91943  -8.78739  16.24384
 H  -18.47875  -9.97620  16.53817
 H  -16.78039  -8.14348  15.69083
 H  -17.74301  -7.54277  17.19177
 H  -18.14033  -6.54523  14.10314
 H  -19.20050  -5.99540  15.55890
 C  21.19441  5.96594  -16.13036
 C  20.16318  5.12832  -15.70274
 C  19.08693  5.81119  -15.05495
 C  19.26923  7.19501  -14.97063
 S  20.73187  7.49659  -15.69186
 H  20.17979  3.99834  -15.86465
 C  17.91191  4.81164  -14.57550
 C  16.29154  4.99010  -15.00066
 C  15.24094  5.83401  -14.01181
 H  15.81879  6.68825  -13.49893
 H  14.39746  6.28054  -14.66286
 H  16.28337  5.52022  -16.03070
 H  15.86440  3.92487  -15.14020
 H  17.90843  4.81255  -13.40334
 H  18.17763  3.71807  -14.89927
 C  14.61198  4.84165  -12.87737
 C  13.27448  3.90259  -13.32290
 C  13.62637  2.33615  -13.83842
 H  14.36184  1.84510  -13.09188
 H  14.10004  2.36827  -14.89231
 H  12.64574  1.72181  -13.87346
 H  12.72788  4.44239  -14.18169
 H  12.57638  3.82666  -12.40927
 H  15.43600  4.10778  -12.52371
 H  14.28290  5.48312  -11.97126
 H  -15.23146  0.18796  10.98554
 H  -12.60198  -2.84915  13.27623
 H  22.08543  5.68318  -16.63009
 H  18.61050  7.90303  -14.53661
*
