# ================================================================
# Orca input file made by Matty Jones
# ================================================================
! ZINDO/S 
! NOPOP
! NOMOPRINT
* xyz 0   1
 C  13.44651  -16.09864  28.11818
 C  14.03606  -15.64900  29.30062
 C  13.23005  -14.72990  30.04214
 C  11.99782  -14.45238  29.44220
 S  11.97081  -15.34623  28.04551
 H  14.86016  -16.22505  29.85260
 C  13.89636  -14.18522  31.39966
 C  15.50150  -13.70257  31.04543
 C  16.62909  -13.15180  32.16737
 H  16.56172  -11.99507  32.17243
 H  17.67270  -13.44539  31.75021
 H  16.02558  -14.60052  30.54266
 H  15.38908  -12.85716  30.26303
 H  13.31884  -13.26341  31.79553
 H  13.92748  -15.01409  32.20654
 C  16.52340  -13.69970  33.69312
 C  15.61497  -12.75470  34.75101
 C  14.02830  -13.26094  34.96170
 H  13.47900  -13.29666  33.94933
 H  13.48728  -12.51696  35.66583
 H  14.03012  -14.31416  35.44365
 H  16.13786  -12.76348  35.77882
 H  15.59328  -11.67476  34.34534
 H  17.59034  -13.78298  34.13842
 H  16.05367  -14.75890  33.68424
 C  -10.44707  14.07984  -33.15830
 C  -11.77858  14.35364  -32.84204
 C  -11.99952  14.66336  -31.46381
 C  -10.83660  14.63398  -30.68786
 S  -9.61343  14.23199  -31.73317
 H  -12.62312  14.36715  -33.61055
 C  -13.37452  15.04208  -30.66057
 C  -14.91993  14.30874  -30.32340
 C  -16.52403  14.12258  -30.91127
 H  -17.21386  14.32995  -29.99902
 H  -16.67663  14.98178  -31.66740
 H  -14.59291  13.20364  -30.18240
 H  -15.13372  14.76139  -29.27016
 H  -13.74641  16.03669  -31.16621
 H  -13.04164  15.33867  -29.57583
 C  -16.98287  12.70230  -31.56033
 C  -17.30659  12.61293  -33.21118
 C  -17.37627  14.08924  -34.00594
 H  -16.33327  14.58841  -33.98765
 H  -18.15030  14.77211  -33.48105
 H  -17.70399  13.91340  -35.10243
 H  -16.47834  11.97929  -33.70358
 H  -18.32306  12.08393  -33.34849
 H  -16.16149  11.91279  -31.34222
 H  -17.95324  12.35792  -31.02173
 H  13.85586  -16.77791  27.41489
 H  11.23972  -13.80604  29.80431
 H  -10.05205  13.82777  -34.10911
 H  -10.75413  14.82801  -29.64904
*
