# ================================================================
# Orca input file made by Matty Jones
# ================================================================
! ZINDO/S 
! NOPOP
! NOMOPRINT
* xyz 0   1
 C  7.64809  -1.96239  -2.22300
 C  6.56453  -2.45385  -2.95256
 C  5.41554  -1.60307  -2.93609
 C  5.59273  -0.43392  -2.18976
 S  7.13991  -0.51324  -1.59785
 H  6.13767  -3.53262  -2.63999
 C  4.12669  -2.09942  -3.77032
 C  2.54210  -1.76817  -3.33800
 C  1.91776  -2.82535  -2.18676
 H  2.21336  -3.90327  -2.48096
 H  2.40771  -2.56928  -1.17081
 H  2.47637  -0.69354  -2.94131
 H  1.89283  -1.86222  -4.28977
 H  4.17366  -3.26845  -3.85819
 H  4.23273  -1.69068  -4.86504
 C  0.30027  -2.71025  -2.06843
 C  -0.25097  -1.27730  -1.36996
 C  -0.58613  -0.10847  -2.53805
 H  0.13757  -0.22476  -3.43296
 H  -0.46139  0.94391  -2.07371
 H  -1.67488  -0.24719  -2.90512
 H  -1.21167  -1.49517  -0.77527
 H  0.56198  -0.86839  -0.66567
 H  -0.17382  -2.80332  -3.11969
 H  -0.09097  -3.58173  -1.41301
 C  1.88429  2.81754  0.78519
 C  0.85306  1.97992  1.21281
 C  -0.22319  2.66279  1.86060
 C  -0.04089  4.04661  1.94492
 S  1.42175  4.34819  1.22369
 H  0.86967  0.84994  1.05091
 C  -1.39821  1.66324  2.34005
 C  -3.01858  1.84170  1.91489
 C  -4.06918  2.68561  2.90375
 H  -3.49133  3.53984  3.41662
 H  -4.91266  3.13214  2.25270
 H  -3.02675  2.37181  0.88485
 H  -3.44572  0.77646  1.77536
 H  -1.40169  1.66415  3.51222
 H  -1.13249  0.56967  2.01629
 C  -4.69814  1.69325  4.03818
 C  -6.03564  0.75419  3.59266
 C  -5.68375  -0.81225  3.07714
 H  -4.94828  -1.30330  3.82367
 H  -5.21008  -0.78013  2.02324
 H  -6.66438  -1.42659  3.04210
 H  -6.58224  1.29399  2.73386
 H  -6.73374  0.67826  4.50629
 H  -3.87412  0.95938  4.39185
 H  -5.02722  2.33472  4.94429
 H  8.59604  -2.41926  -2.09546
 H  4.88610  0.34084  -2.03477
 H  2.77531  2.53478  0.28547
 H  -0.69962  4.75463  2.37894
*
