# ================================================================
# Orca input file made by Matty Jones
# ================================================================
! ZINDO/S 
! NOPOP
! NOMOPRINT
* xyz 0   1
 C  14.98459  29.19588  -12.39690
 C  13.95336  28.35826  -11.96928
 C  12.87710  29.04113  -11.32149
 C  13.05941  30.42495  -11.23717
 S  14.52205  30.72653  -11.95840
 H  13.96997  27.22828  -12.13118
 C  11.70209  28.04158  -10.84204
 C  10.08172  28.22004  -11.26720
 C  9.03112  29.06395  -10.27835
 H  9.60897  29.91819  -9.76547
 H  8.18764  29.51048  -10.92940
 H  10.07355  28.75016  -12.29724
 H  9.65458  27.15481  -11.40673
 H  11.69860  28.04249  -9.66987
 H  11.96781  26.94801  -11.16580
 C  8.40215  28.07159  -9.14391
 C  7.06466  27.13253  -9.58943
 C  7.41655  25.56609  -10.10496
 H  8.15202  25.07504  -9.35842
 H  7.89022  25.59821  -11.15885
 H  6.43591  24.95176  -10.13999
 H  6.51806  27.67233  -10.44823
 H  6.36655  27.05660  -8.67580
 H  9.22618  27.33772  -8.79024
 H  8.07308  28.71306  -8.23780
 C  -6.11732  -27.99310  9.42535
 C  -7.44883  -27.71930  9.74161
 C  -7.66976  -27.40957  11.11985
 C  -6.50685  -27.43896  11.89579
 S  -5.28367  -27.84095  10.85048
 H  -8.29337  -27.70578  8.97310
 C  -9.04476  -27.03086  11.92308
 C  -10.59018  -27.76420  12.26026
 C  -12.19427  -27.95036  11.67239
 H  -12.88411  -27.74299  12.58463
 H  -12.34688  -27.09116  10.91625
 H  -10.26315  -28.86930  12.40126
 H  -10.80396  -27.31154  13.31350
 H  -9.41666  -26.03625  11.41744
 H  -8.71189  -26.73427  13.00782
 C  -12.65311  -29.37064  11.02332
 C  -12.97684  -29.46001  9.37248
 C  -13.04651  -27.98370  8.57771
 H  -12.00351  -27.48453  8.59601
 H  -13.82055  -27.30083  9.10260
 H  -13.37424  -28.15953  7.48123
 H  -12.14859  -30.09365  8.88007
 H  -13.99330  -29.98900  9.23516
 H  -11.83173  -30.16015  11.24143
 H  -13.62349  -29.71502  11.56193
 H  15.87561  28.91312  -12.89663
 H  12.40067  31.13297  -10.80315
 H  -5.72230  -28.24517  8.47455
 H  -6.42437  -27.24492  12.93461
*
