# ================================================================
# Orca input file made by Matty Jones
# ================================================================
! ZINDO/S 
! NOPOP
! NOMOPRINT
* xyz 0   1
 C  -10.70400  28.80923  -1.00289
 C  -10.95439  27.43740  -1.06009
 C  -10.67049  26.74088  0.15586
 C  -10.19351  27.56689  1.17836
 S  -10.14878  29.09406  0.53325
 H  -11.36540  26.90985  -1.98675
 C  -10.90331  25.13226  0.24388
 C  -11.28764  24.10310  1.58361
 C  -12.86647  23.85729  2.15747
 H  -13.21288  24.86584  2.60845
 H  -13.52897  23.61185  1.24379
 H  -10.58629  24.28513  2.45791
 H  -11.00284  23.04913  1.16403
 H  -9.92885  24.63351  -0.17171
 H  -11.76448  24.87248  -0.50354
 C  -13.04844  22.69365  3.29217
 C  -13.44108  21.15315  2.69710
 C  -12.13635  20.14464  2.36384
 H  -11.19334  20.78264  2.16063
 H  -12.37864  19.50233  1.43174
 H  -11.94818  19.45120  3.27179
 H  -14.04192  21.29246  1.72343
 H  -14.10363  20.62948  3.48218
 H  -12.07045  22.58942  3.89985
 H  -13.89949  22.99877  4.01491
 C  9.49713  -28.37534  -2.84080
 C  10.24590  -27.40138  -2.17851
 C  9.45989  -26.46188  -1.44108
 C  8.08351  -26.69518  -1.52148
 S  7.91388  -28.03276  -2.48716
 H  11.38827  -27.39843  -2.14953
 C  10.13774  -25.25894  -0.59679
 C  11.44272  -24.47088  -1.31304
 C  12.22011  -23.19765  -0.49962
 H  12.34381  -23.48093  0.61072
 H  11.57393  -22.24743  -0.58575
 H  12.24824  -25.27671  -1.49747
 H  11.08010  -24.05115  -2.32413
 H  9.34624  -24.42136  -0.40874
 H  10.50731  -25.65361  0.43433
 C  13.67222  -22.97615  -1.20937
 C  14.61241  -21.64228  -0.78960
 C  14.36393  -20.35985  -1.85042
 H  15.10822  -19.50950  -1.60372
 H  13.27856  -19.97581  -1.74050
 H  14.53853  -20.72450  -2.93547
 H  14.34079  -21.30593  0.27648
 H  15.72304  -21.94483  -0.83342
 H  13.51495  -22.92937  -2.35664
 H  14.32286  -23.91006  -0.97528
 H  -10.84009  29.51930  -1.77805
 H  -9.91818  27.27754  2.16023
 H  9.86339  -29.16710  -3.44293
 H  7.31042  -26.13449  -1.06152
*
