# ================================================================
# Orca input file made by Matty Jones
# ================================================================
! ZINDO/S 
! NOPOP
! NOMOPRINT
* xyz 0   1
 C  25.70588  -4.43162  5.15707
 C  25.45549  -5.80345  5.09987
 C  25.73939  -6.49997  6.31582
 C  26.21637  -5.67396  7.33832
 S  26.26110  -4.14679  6.69321
 H  25.04448  -6.33100  4.17321
 C  25.50657  -8.10859  6.40384
 C  25.12224  -9.13776  7.74357
 C  23.54341  -9.38356  8.31743
 H  23.19700  -8.37501  8.76841
 H  22.88091  -9.62900  7.40375
 H  25.82359  -8.95573  8.61787
 H  25.40704  -10.19173  7.32399
 H  26.48103  -8.60734  5.98825
 H  24.64540  -8.36837  5.65642
 C  23.36144  -10.54720  9.45213
 C  22.96880  -12.08770  8.85706
 C  24.27353  -13.09621  8.52380
 H  25.21654  -12.45821  8.32059
 H  24.03123  -13.73852  7.59170
 H  24.46169  -13.78965  9.43175
 H  22.36796  -11.94839  7.88339
 H  22.30625  -12.61137  9.64214
 H  24.33943  -10.65143  10.05981
 H  22.51039  -10.24208  10.17487
 C  -27.17464  5.77306  -9.22343
 C  -26.32900  6.75342  -8.70218
 C  -26.98287  7.69329  -7.84584
 C  -28.35171  7.45391  -7.69011
 S  -28.67641  6.11085  -8.60724
 H  -25.20799  6.80117  -8.91628
 C  -26.18713  8.89960  -7.14375
 C  -25.12352  9.77088  -8.12687
 C  -24.44169  11.07737  -7.29897
 H  -25.30198  11.59259  -6.71780
 H  -24.06163  11.81603  -8.10750
 H  -24.27905  9.07057  -8.47210
 H  -25.70426  10.16929  -9.03600
 H  -26.87614  9.71562  -6.71831
 H  -25.55418  8.47139  -6.25876
 C  -23.22899  10.76182  -6.26370
 C  -21.68181  10.64988  -6.92453
 C  -21.22829  9.06833  -7.27752
 H  -20.18764  8.86222  -6.81331
 H  -21.17578  8.93024  -8.42504
 H  -21.99941  8.32780  -6.83465
 H  -21.65271  11.26373  -7.89938
 H  -20.93044  11.08930  -6.16986
 H  -23.45039  9.77078  -5.70828
 H  -23.19071  11.61282  -5.47548
 H  25.56979  -3.72155  4.38191
 H  26.49170  -5.96331  8.32019
 H  -26.91215  4.97982  -9.87570
 H  -29.03812  8.01368  -7.10778
*
