# ================================================================
# Orca input file made by Matty Jones
# ================================================================
! ZINDO/S 
! NOPOP
! NOMOPRINT
* xyz 0   1
 C  23.51530  -2.04650  12.09440
 C  24.84195  -1.84677  11.70968
 C  25.80168  -2.39744  12.61520
 C  25.22997  -3.03520  13.72052
 S  23.59019  -2.88630  13.52206
 H  25.31469  -0.85120  11.27990
 C  27.39532  -2.27246  12.38713
 C  27.90131  -0.66862  12.12438
 C  29.52322  -0.24310  11.87324
 H  30.13044  -1.22040  11.78373
 H  29.88428  0.32852  12.81213
 H  27.33683  -0.30394  11.18797
 H  27.54389  -0.06397  13.04179
 H  27.98127  -2.63074  13.32262
 H  27.72311  -2.90797  11.47518
 C  29.73942  0.69244  10.55513
 C  30.29006  0.00856  9.11162
 C  31.09616  -1.45696  9.26400
 H  31.87066  -1.38051  10.12144
 H  31.64636  -1.69040  8.27216
 H  30.33642  -2.29752  9.49489
 H  29.37528  -0.16039  8.42926
 H  31.00452  0.76249  8.61065
 H  28.73695  1.21752  10.30066
 H  30.50740  1.51925  10.82961
 C  -23.38181  2.27840  -13.06562
 C  -24.41304  1.44077  -12.63800
 C  -25.48929  2.12364  -11.99022
 C  -25.30699  3.50747  -11.90590
 S  -23.84435  3.80904  -12.62713
 H  -24.39643  0.31079  -12.79991
 C  -26.66431  1.12409  -11.51076
 C  -28.28468  1.30255  -11.93593
 C  -29.33528  2.14647  -10.94707
 H  -28.75743  3.00070  -10.43419
 H  -30.17876  2.59300  -11.59812
 H  -28.29285  1.83267  -12.96597
 H  -28.71182  0.23732  -12.07546
 H  -26.66780  1.12501  -10.33860
 H  -26.39859  0.03052  -11.83453
 C  -29.96425  1.15411  -9.81264
 C  -31.30174  0.21504  -10.25816
 C  -30.94985  -1.35139  -10.77368
 H  -30.21438  -1.84245  -10.02715
 H  -30.47618  -1.31928  -11.82757
 H  -31.93048  -1.96573  -10.80872
 H  -31.84834  0.75484  -11.11695
 H  -31.99985  0.13911  -9.34453
 H  -29.14022  0.42023  -9.45897
 H  -30.29332  1.79557  -8.90652
 H  22.64365  -1.72837  11.58194
 H  25.73824  -3.51365  14.51823
 H  -22.49079  1.99564  -13.56535
 H  -25.96573  4.21548  -11.47187
*
