# ================================================================
# Orca input file made by Matty Jones
# ================================================================
! ZINDO/S 
! NOPOP
! NOMOPRINT
* xyz 0   1
 C  28.06196  -7.54352  4.62490
 C  27.81157  -8.91535  4.56771
 C  28.09547  -9.61187  5.78365
 C  28.57245  -8.78585  6.80616
 S  28.61718  -7.25869  6.16104
 H  27.40056  -9.44289  3.64104
 C  27.86265  -11.22049  5.87167
 C  27.47832  -12.24965  7.21140
 C  25.89949  -12.49546  7.78526
 H  25.55308  -11.48691  8.23624
 H  25.23699  -12.74090  6.87158
 H  28.17967  -12.06762  8.08570
 H  27.76312  -13.30362  6.79182
 H  28.83711  -11.71924  5.45608
 H  27.00148  -11.48027  5.12425
 C  25.71752  -13.65910  8.91996
 C  25.32488  -15.19960  8.32489
 C  26.62961  -16.20810  7.99163
 H  27.57262  -15.57011  7.78843
 H  26.38731  -16.85042  7.05953
 H  26.81777  -16.90155  8.89959
 H  24.72404  -15.06029  7.35122
 H  24.66233  -15.72326  9.10997
 H  26.69551  -13.76332  9.52765
 H  24.86647  -13.35398  9.64271
 C  -28.77398  8.39090  -5.25637
 C  -28.72590  9.59875  -5.95399
 C  -29.15470  10.73032  -5.19245
 C  -29.54334  10.41439  -3.88689
 S  -29.33884  8.77468  -3.74550
 H  -28.65090  9.60849  -7.09528
 C  -29.09902  12.14440  -5.97838
 C  -27.61776  12.20783  -6.86784
 C  -27.08320  13.43559  -7.90802
 H  -26.83241  14.36640  -7.27337
 H  -27.94629  13.68731  -8.63219
 H  -26.79409  12.10199  -6.06437
 H  -27.60739  11.27978  -7.54942
 H  -29.97123  12.23557  -6.73466
 H  -29.12212  13.03897  -5.24614
 C  -25.76858  12.96357  -8.76033
 C  -24.24101  13.40163  -8.18940
 C  -23.70679  14.83977  -8.88296
 H  -23.40595  14.64238  -9.98357
 H  -22.79219  15.23497  -8.29540
 H  -24.55975  15.62020  -8.84839
 H  -24.29155  13.53421  -7.04779
 H  -23.49183  12.56705  -8.45195
 H  -25.85964  13.38234  -9.83680
 H  -25.76344  11.80560  -8.83056
 H  27.92587  -6.83344  3.84974
 H  28.84778  -9.07521  7.78802
 H  -28.50590  7.43067  -5.61651
 H  -29.89502  11.08294  -3.14328
*
