# ================================================================
# Orca input file made by Matty Jones
# ================================================================
! ZINDO/S 
! NOPOP
! NOMOPRINT
* xyz 0   1
 C  31.69592  -5.97824  1.68672
 C  31.44553  -7.35007  1.62952
 C  31.72943  -8.04659  2.84546
 C  32.20641  -7.22058  3.86797
 S  32.25114  -5.69341  3.22285
 H  31.03452  -7.87762  0.70286
 C  31.49661  -9.65521  2.93349
 C  31.11228  -10.68438  4.27322
 C  29.53345  -10.93018  4.84707
 H  29.18704  -9.92163  5.29805
 H  28.87095  -11.17562  3.93340
 H  31.81364  -10.50235  5.14751
 H  31.39708  -11.73835  3.85364
 H  32.47107  -10.15396  2.51790
 H  30.63544  -9.91499  2.18606
 C  29.35148  -12.09382  5.98177
 C  28.95884  -13.63432  5.38671
 C  30.26357  -14.64283  5.05344
 H  31.20658  -14.00483  4.85024
 H  30.02128  -15.28514  4.12135
 H  30.45174  -15.33628  5.96140
 H  28.35801  -13.49501  4.41303
 H  28.29629  -14.15799  6.17178
 H  30.32947  -12.19805  6.58946
 H  28.50043  -11.78870  6.70452
 C  -26.90395  12.77124  -5.72859
 C  -27.82607  12.10419  -4.92072
 C  -28.57618  12.96355  -4.05868
 C  -28.24469  14.31599  -4.18649
 S  -27.05766  14.37651  -5.34309
 H  -27.76496  10.98355  -4.72472
 C  -29.70053  12.37614  -3.04477
 C  -30.86384  11.35400  -3.78805
 C  -32.19085  10.44467  -3.19432
 H  -32.49715  10.93277  -2.19207
 H  -33.05232  10.58259  -3.95352
 H  -30.22994  10.57405  -4.30419
 H  -31.34975  12.04646  -4.58358
 H  -30.29390  13.24245  -2.54772
 H  -29.18942  11.75524  -2.20783
 C  -31.96545  8.84412  -2.94668
 C  -32.06515  7.86140  -4.33381
 C  -33.56034  7.27974  -4.84735
 H  -33.39547  6.34014  -5.50470
 H  -34.08978  8.09685  -5.47354
 H  -34.20960  7.00489  -3.93181
 H  -31.40048  6.93885  -4.13143
 H  -31.63157  8.46555  -5.20617
 H  -32.77014  8.45860  -2.21063
 H  -30.92191  8.67088  -2.48218
 H  31.55983  -5.26817  0.91155
 H  32.48174  -7.50993  4.84984
 H  -26.24442  12.34210  -6.43884
 H  -28.66426  15.13174  -3.65534
*
