# ================================================================
# Orca input file made by Matty Jones
# ================================================================
! ZINDO/S 
! NOPOP
! NOMOPRINT
* xyz 0   1
 C  38.09019  27.45647  0.89791
 C  37.36640  26.44498  1.53109
 C  38.17612  25.50399  2.24042
 C  39.54620  25.77380  2.16697
 S  39.68174  27.14316  1.24129
 H  36.22818  26.36448  1.49964
 C  37.60545  24.22351  3.05835
 C  36.27194  24.33235  4.12770
 C  35.88983  22.88091  4.96199
 H  35.58135  23.25741  6.02018
 H  36.91187  22.34038  5.06483
 H  35.35244  24.62216  3.50030
 H  36.49870  25.14513  4.90511
 H  38.46934  23.79578  3.72199
 H  37.31443  23.39581  2.29633
 C  34.79036  21.73120  4.56807
 C  35.12207  20.27926  5.40272
 C  34.07319  18.97310  5.22400
 H  34.03808  18.64929  4.11478
 H  33.01591  19.28097  5.57777
 H  34.45659  18.09216  5.87209
 H  36.15495  19.92488  5.02476
 H  35.19233  20.52559  6.52569
 H  34.79501  21.52314  3.43706
 H  33.73484  22.07296  4.89283
 C  -32.16178  -23.15468  -4.97418
 C  -33.49329  -22.88088  -4.65792
 C  -33.71423  -22.57115  -3.27969
 C  -32.55131  -22.60054  -2.50374
 S  -31.32814  -23.00253  -3.54905
 H  -34.33783  -22.86736  -5.42643
 C  -35.08923  -22.19244  -2.47645
 C  -36.63464  -22.92578  -2.13928
 C  -38.23874  -23.11194  -2.72715
 H  -38.92857  -22.90457  -1.81490
 H  -38.39134  -22.25274  -3.48328
 H  -36.30762  -24.03088  -1.99828
 H  -36.84843  -22.47312  -1.08604
 H  -35.46112  -21.19783  -2.98209
 H  -34.75635  -21.89585  -1.39171
 C  -38.69758  -24.53222  -3.37621
 C  -39.02130  -24.62159  -5.02706
 C  -39.09098  -23.14528  -5.82182
 H  -38.04798  -22.64611  -5.80353
 H  -39.86501  -22.46241  -5.29693
 H  -39.41870  -23.32111  -6.91831
 H  -38.19305  -25.25523  -5.51946
 H  -40.03776  -25.15058  -5.16437
 H  -37.87620  -25.32173  -3.15810
 H  -39.66795  -24.87660  -2.83761
 H  37.70388  28.25633  0.31947
 H  40.33336  25.21921  2.61016
 H  -31.76676  -23.40675  -5.92499
 H  -32.46884  -22.40650  -1.46492
*
