# ================================================================
# Orca input file made by Matty Jones
# ================================================================
! ZINDO/S 
! NOPOP
! NOMOPRINT
* xyz 0   1
 C  15.07766  22.58389  -15.64694
 C  16.19689  23.04167  -14.95007
 C  15.97283  24.24525  -14.21152
 C  14.67008  24.74035  -14.32581
 S  13.87521  23.67783  -15.32062
 H  17.21006  22.51662  -14.99064
 C  17.23161  24.82631  -13.38422
 C  17.77401  26.42249  -13.61010
 C  17.09950  27.69662  -12.74967
 H  16.14346  28.02226  -13.30454
 H  17.85929  28.57471  -12.84389
 H  18.90486  26.41718  -13.36932
 H  17.63624  26.65954  -14.73333
 H  17.01838  24.69830  -12.24575
 H  18.17339  24.17235  -13.62091
 C  16.80168  27.46617  -11.16709
 C  17.94568  28.08099  -10.08333
 C  19.18343  27.04978  -9.60587
 H  19.00804  25.99414  -10.04354
 H  19.20229  26.99203  -8.44907
 H  20.19502  27.46586  -9.98542
 H  18.42424  29.01287  -10.56522
 H  17.37182  28.40115  -9.13328
 H  16.70328  26.33825  -10.93873
 H  15.79149  27.97169  -10.90506
 C  -12.84177  -25.86547  11.36343
 C  -14.17329  -25.59166  11.67969
 C  -14.39422  -25.28194  13.05792
 C  -13.23131  -25.31133  13.83387
 S  -12.00813  -25.71332  12.78856
 H  -15.01783  -25.57815  10.91118
 C  -15.76922  -24.90323  13.86116
 C  -17.31464  -25.63657  14.19833
 C  -18.91873  -25.82273  13.61046
 H  -19.60857  -25.61536  14.52271
 H  -19.07133  -24.96353  12.85433
 H  -16.98761  -26.74167  14.33933
 H  -17.52842  -25.18391  15.25157
 H  -16.14111  -23.90862  13.35552
 H  -15.43634  -24.60664  14.94590
 C  -19.37757  -27.24301  12.96140
 C  -19.70129  -27.33238  11.31055
 C  -19.77097  -25.85607  10.51579
 H  -18.72797  -25.35690  10.53408
 H  -20.54501  -25.17320  11.04068
 H  -20.09869  -26.03190  9.41930
 H  -18.87305  -27.96602  10.81815
 H  -20.71776  -27.86137  11.17324
 H  -18.55619  -28.03252  13.17951
 H  -20.34795  -27.58739  13.50000
 H  15.01051  21.71917  -16.25634
 H  14.27360  25.61223  -13.87168
 H  -12.44676  -26.11754  10.41262
 H  -13.14883  -25.11729  14.87269
*
