# ================================================================
# Orca input file made by Matty Jones
# ================================================================
! ZINDO/S 
! NOPOP
! NOMOPRINT
* xyz 0   1
 C  -1.24917  0.79567  -2.97185
 C  -1.85673  -0.37180  -2.50731
 C  -1.28680  -0.88649  -1.30127
 C  -0.22384  -0.12159  -0.81102
 S  -0.04759  1.13363  -1.88050
 H  -2.72638  -0.88952  -3.03320
 C  -1.86687  -2.23415  -0.62495
 C  -3.53226  -2.40944  -0.27119
 C  -4.83830  -3.01361  -1.18092
 H  -5.35718  -3.77863  -0.47307
 H  -5.55823  -2.10912  -1.30339
 H  -3.53563  -3.06754  0.68525
 H  -3.86145  -1.33893  0.02553
 H  -1.36200  -2.46216  0.38875
 H  -1.62866  -3.12358  -1.33809
 C  -4.71989  -3.73257  -2.63572
 C  -6.25754  -4.12529  -3.24857
 C  -6.86933  -5.63158  -2.81162
 H  -8.01333  -5.64303  -2.99184
 H  -6.65155  -5.82904  -1.69308
 H  -6.36848  -6.44969  -3.45822
 H  -6.19616  -4.08565  -4.39870
 H  -7.00094  -3.32557  -2.87826
 H  -4.20809  -3.02322  -3.38832
 H  -4.10741  -4.70738  -2.55419
 C  0.67558  -0.34525  0.58425
 C  1.49759  0.54119  1.28169
 C  2.07922  -0.01040  2.46563
 C  1.71465  -1.33911  2.70426
 S  0.70604  -1.75566  1.45542
 H  1.71717  1.60587  0.93147
 C  3.08929  0.77937  3.45833
 C  4.42013  1.85638  3.18470
 C  5.12808  2.66405  1.85366
 H  6.27181  2.52564  1.92121
 H  4.73876  2.16841  0.88867
 H  5.31434  1.22597  3.58269
 H  4.22061  2.70761  3.94551
 H  3.60748  -0.02981  4.12430
 H  2.40246  1.40938  4.17868
 C  4.77701  4.26276  1.84415
 C  5.53131  5.21138  0.65859
 C  5.14080  6.85129  0.72116
 H  4.80036  7.12942  1.79131
 H  4.28527  7.06902  -0.02739
 H  6.07196  7.47747  0.43679
 H  6.67102  5.11034  0.79247
 H  5.22317  4.80613  -0.37364
 H  3.63609  4.39693  1.71253
 H  5.08695  4.71424  2.86489
 H  -1.50250  1.34949  -3.83944
 H  2.01919  -1.95181  3.51386
*
