# ================================================================
# Orca input file made by Matty Jones
# ================================================================
! ZINDO/S 
! NOPOP
! NOMOPRINT
* xyz 0   1
 C  -19.17490  -1.13376  -31.01967
 C  -19.89870  -2.14525  -30.38649
 C  -19.08897  -3.08625  -29.67716
 C  -17.71889  -2.81643  -29.75061
 S  -17.58335  -1.44707  -30.67630
 H  -21.03691  -2.22575  -30.41795
 C  -19.65964  -4.36673  -28.85923
 C  -20.99316  -4.25789  -27.78988
 C  -21.37527  -5.70933  -26.95560
 H  -21.68375  -5.33283  -25.89741
 H  -20.35323  -6.24985  -26.85275
 H  -21.91265  -3.96808  -28.41728
 H  -20.76640  -3.44511  -27.01247
 H  -18.79576  -4.79446  -28.19560
 H  -19.95066  -5.19443  -29.62125
 C  -22.47473  -6.85904  -27.34952
 C  -22.14303  -8.31098  -26.51487
 C  -23.19191  -9.61714  -26.69359
 H  -23.22701  -9.94095  -27.80280
 H  -24.24919  -9.30927  -26.33981
 H  -22.80850  -10.49807  -26.04549
 H  -21.11015  -8.66536  -26.89282
 H  -22.07277  -8.06465  -25.39189
 H  -22.47008  -7.06710  -28.48052
 H  -23.53025  -6.51728  -27.02475
 C  19.65633  3.26624  24.38472
 C  20.24589  3.71587  25.56715
 C  19.43987  4.63497  26.30867
 C  18.20764  4.91249  25.70874
 S  18.18063  4.01865  24.31205
 H  21.06999  3.13982  26.11913
 C  20.10618  5.17965  27.66619
 C  21.71132  5.66231  27.31197
 C  22.83891  6.21307  28.43391
 H  22.77155  7.36980  28.43896
 H  23.88253  5.91948  28.01675
 H  22.23540  4.76435  26.80920
 H  21.59891  6.50772  26.52956
 H  19.52866  6.10147  28.06206
 H  20.13730  4.35078  28.47308
 C  22.73323  5.66517  29.95965
 C  21.82480  6.61018  31.01754
 C  20.23812  6.10394  31.22823
 H  19.68882  6.06822  30.21587
 H  19.69710  6.84792  31.93237
 H  20.23995  5.05072  31.71019
 H  22.34769  6.60140  32.04536
 H  21.80311  7.69011  30.61187
 H  23.80017  5.58190  30.40495
 H  22.26349  4.60598  29.95078
 H  -19.56122  -0.33391  -31.59812
 H  -16.93174  -3.37102  -29.30743
 H  20.06568  2.58696  23.68143
 H  17.44955  5.55884  26.07085
*
