# ================================================================
# Orca input file made by Matty Jones
# ================================================================
! ZINDO/S 
! NOPOP
! NOMOPRINT
* xyz 0   1
 C  23.25944  3.52496  11.02010
 C  23.00905  2.15313  10.96291
 C  23.29295  1.45661  12.17885
 C  23.76993  2.28262  13.20136
 S  23.81466  3.80979  12.55624
 H  22.59804  1.62558  10.03624
 C  23.06013  -0.15201  12.26687
 C  22.67580  -1.18117  13.60660
 C  21.09697  -1.42698  14.18046
 H  20.75056  -0.41843  14.63144
 H  20.43447  -1.67242  13.26678
 H  23.37716  -0.99914  14.48090
 H  22.96060  -2.23514  13.18702
 H  24.03459  -0.65076  11.85128
 H  22.19896  -0.41179  11.51945
 C  20.91500  -2.59062  15.31516
 C  20.52236  -4.13112  14.72009
 C  21.82709  -5.13963  14.38683
 H  22.77010  -4.50163  14.18363
 H  21.58480  -5.78194  13.45473
 H  22.01526  -5.83307  15.29479
 H  19.92153  -3.99181  13.74642
 H  19.85981  -4.65479  15.50517
 H  21.89299  -2.69485  15.92285
 H  20.06395  -2.28550  16.03791
 C  -17.29223  0.82658  -13.11225
 C  -18.37579  0.33513  -13.84181
 C  -19.52478  1.18591  -13.82534
 C  -19.34759  2.35506  -13.07901
 S  -17.80041  2.27574  -12.48710
 H  -18.80264  -0.74364  -13.52924
 C  -20.81363  0.68956  -14.65957
 C  -22.39822  1.02080  -14.22725
 C  -23.02256  -0.03637  -13.07601
 H  -22.72696  -1.11429  -13.37021
 H  -22.53261  0.21969  -12.06006
 H  -22.46395  2.09544  -13.83056
 H  -23.04749  0.92676  -15.17902
 H  -20.76666  -0.47947  -14.74744
 H  -20.70759  1.09830  -15.75429
 C  -24.64005  0.07873  -12.95768
 C  -25.19129  1.51167  -12.25921
 C  -25.52645  2.68050  -13.42729
 H  -24.80275  2.56422  -14.32221
 H  -25.40170  3.73288  -12.96296
 H  -26.61520  2.54179  -13.79437
 H  -26.15199  1.29381  -11.66452
 H  -24.37834  1.92059  -11.55492
 H  -25.11414  -0.01434  -14.00894
 H  -25.03129  -0.79276  -12.30226
 H  23.12335  4.23503  10.24494
 H  24.04526  1.99327  14.18322
 H  -16.34428  0.36972  -12.98471
 H  -20.05422  3.12982  -12.92402
*
