# ================================================================
# Orca input file made by Matty Jones
# ================================================================
! ZINDO/S 
! NOPOP
! NOMOPRINT
* xyz 0   1
 C  -12.33603  -3.60896  9.25549
 C  -13.05982  -4.62045  9.88867
 C  -12.25010  -5.56144  10.59800
 C  -10.88002  -5.29163  10.52455
 S  -10.74448  -3.92226  9.59886
 H  -14.19804  -4.70095  9.85721
 C  -12.82077  -6.84192  11.41593
 C  -14.15428  -6.73308  12.48528
 C  -14.53639  -8.18452  13.31956
 H  -14.84487  -7.80802  14.37776
 H  -13.51436  -8.72505  13.42241
 H  -15.07378  -6.44327  11.85788
 H  -13.92753  -5.92030  13.26269
 H  -11.95688  -7.26965  12.07956
 H  -13.11179  -7.66962  10.65391
 C  -15.63586  -9.33423  12.92564
 C  -15.30416  -10.78617  13.76029
 C  -16.35304  -12.09233  13.58158
 H  -16.38814  -12.41614  12.47236
 H  -17.41031  -11.78446  13.93535
 H  -15.96963  -12.97327  14.22967
 H  -14.27128  -11.14055  13.38234
 H  -15.23390  -10.53984  14.88327
 H  -15.63121  -9.54229  11.79464
 H  -16.69138  -8.99247  13.25041
 C  19.04794  8.31563  -14.18192
 C  17.87207  7.72398  -13.71805
 C  17.06874  8.58175  -12.90371
 C  17.61301  9.85716  -12.72365
 S  19.03948  9.85643  -13.56959
 H  17.56645  6.64990  -13.95331
 C  15.67899  8.02364  -12.28493
 C  14.16421  8.80627  -12.39040
 C  12.94123  8.02125  -11.49939
 H  13.50334  7.39833  -10.69656
 H  12.37489  8.87406  -10.94989
 H  13.85630  8.70541  -13.50598
 H  14.12970  9.90237  -12.12090
 H  15.84208  7.87413  -11.13663
 H  15.47561  6.96424  -12.73756
 C  11.81977  7.05193  -12.17181
 C  10.91470  6.24474  -10.98193
 C  9.64114  7.10593  -10.29756
 H  10.05718  7.80985  -9.47777
 H  8.89085  6.36300  -9.82253
 H  9.10825  7.72939  -11.11249
 H  11.63245  5.93306  -10.13624
 H  10.47086  5.29982  -11.47324
 H  11.08861  7.67654  -12.81193
 H  12.32519  6.25917  -12.84025
 H  -12.72235  -2.80910  8.67704
 H  -10.09286  -5.84622  10.96774
 H  19.78994  7.87322  -14.79618
 H  17.20028  10.65698  -12.16372
*
