# ================================================================
# Orca input file made by Matty Jones
# ================================================================
! ZINDO/S 
! NOPOP
! NOMOPRINT
* xyz 0   1
 C  9.76098  -14.71488  27.86456
 C  9.86173  -15.84561  28.67647
 C  10.01478  -15.55366  30.06773
 C  10.03498  -14.18548  30.35586
 S  9.86482  -13.41979  28.89463
 H  10.26319  -16.82029  28.21471
 C  10.09354  -16.91801  30.94684
 C  8.75759  -17.89983  30.34506
 C  8.00464  -19.43883  30.49501
 H  6.86820  -19.25407  30.57633
 H  8.38934  -19.91732  31.46970
 H  8.98968  -17.96630  29.21733
 H  7.86861  -17.17636  30.51533
 H  9.92367  -16.71569  32.06717
 H  11.08040  -17.48602  30.77126
 C  8.30109  -20.43561  29.23083
 C  7.24176  -21.74998  29.06968
 C  7.68421  -23.14387  29.89218
 H  8.75274  -23.45525  29.57584
 H  6.94001  -23.99248  29.63396
 H  7.65805  -22.93836  31.03078
 H  7.17345  -22.00876  27.94693
 H  6.20333  -21.42162  29.44693
 H  9.37229  -20.85989  29.32221
 H  8.22413  -19.83793  28.24232
 C  -10.64934  15.20253  -32.43742
 C  -10.06791  15.86434  -31.35490
 C  -10.91011  16.85033  -30.75259
 C  -12.16290  16.96767  -31.36257
 S  -12.16261  15.86088  -32.59766
 H  -9.01033  15.65358  -30.97822
 C  -10.49333  17.78433  -29.49668
 C  -9.17874  18.83068  -29.73075
 C  -8.76360  19.87624  -28.45954
 H  -9.74253  20.35396  -28.06957
 H  -8.29410  19.25187  -27.61139
 H  -8.25453  18.18893  -29.97224
 H  -9.44416  19.48944  -30.63953
 H  -11.38511  18.40691  -29.09410
 H  -10.16169  17.08167  -28.62029
 C  -7.74685  21.05814  -28.94434
 C  -6.08344  20.77265  -28.89076
 C  -5.63393  19.31762  -28.18460
 H  -4.49018  19.17725  -28.29760
 H  -6.18343  18.44416  -28.70570
 H  -5.91013  19.33989  -27.06064
 H  -5.69124  20.77420  -29.97642
 H  -5.58554  21.63204  -28.30529
 H  -8.00032  21.34046  -30.03967
 H  -7.93834  21.99216  -28.28343
 H  9.64297  -14.68944  26.81146
 H  10.13758  -13.73257  31.30872
 H  -10.21506  14.43982  -33.03180
 H  -12.94831  17.62616  -31.09217
*
