# ================================================================
# Orca input file made by Matty Jones
# ================================================================
! ZINDO/S 
! NOPOP
! NOMOPRINT
* xyz 0   1
 C  -10.98379  -12.56760  2.95685
 C  -11.70758  -13.57909  3.59003
 C  -10.89786  -14.52009  4.29936
 C  -9.52778  -14.25027  4.22591
 S  -9.39224  -12.88091  3.30023
 H  -12.84580  -13.65959  3.55857
 C  -11.46853  -15.80057  5.11729
 C  -12.80204  -15.69173  6.18664
 C  -13.18415  -17.14317  7.02093
 H  -13.49263  -16.76667  8.07912
 H  -12.16211  -17.68369  7.12377
 H  -13.72154  -15.40192  5.55924
 H  -12.57528  -14.87895  6.96405
 H  -10.60464  -16.22830  5.78092
 H  -11.75955  -16.62827  4.35527
 C  -14.28362  -18.29288  6.62701
 C  -13.95191  -19.74482  7.46165
 C  -15.00079  -21.05098  7.28294
 H  -15.03590  -21.37478  6.17372
 H  -16.05807  -20.74311  7.63671
 H  -14.61739  -21.93191  7.93103
 H  -12.91903  -20.09920  7.08370
 H  -13.88165  -19.49849  8.58463
 H  -14.27897  -18.50094  5.49600
 H  -15.33914  -17.95112  6.95177
 C  10.82142  13.41970  -8.52649
 C  11.40285  14.08152  -7.44398
 C  10.56064  15.06750  -6.84166
 C  9.30786  15.18484  -7.45164
 S  9.30815  14.07805  -8.68673
 H  12.46043  13.87076  -7.06730
 C  10.97742  16.00150  -5.58575
 C  12.29202  17.04785  -5.81982
 C  12.70716  18.09341  -4.54861
 H  11.72823  18.57113  -4.15865
 H  13.17666  17.46905  -3.70047
 H  13.21623  16.40611  -6.06131
 H  12.02660  17.70662  -6.72861
 H  10.08565  16.62409  -5.18318
 H  11.30907  15.29884  -4.70937
 C  13.72391  19.27532  -5.03341
 C  15.38732  18.98983  -4.97983
 C  15.83683  17.53480  -4.27367
 H  16.98058  17.39442  -4.38667
 H  15.28733  16.66133  -4.79477
 H  15.56063  17.55706  -3.14972
 H  15.77952  18.99138  -6.06549
 H  15.88522  19.84922  -4.39436
 H  13.47044  19.55764  -6.12874
 H  13.53242  20.20934  -4.37250
 H  -11.37011  -11.76775  2.37841
 H  -8.74062  -14.80486  4.66910
 H  11.25570  12.65700  -9.12087
 H  8.52245  15.84333  -7.18124
*
