# ================================================================
# Orca input file made by Matty Jones
# ================================================================
! ZINDO/S 
! NOPOP
! NOMOPRINT
* xyz 0   1
 C  20.76726  2.27908  5.69113
 C  20.15970  1.11162  6.15567
 C  20.72964  0.59693  7.36172
 C  21.79259  1.36183  7.85197
 S  21.96885  2.61705  6.78249
 H  19.29006  0.59389  5.62979
 C  20.14956  -0.75073  8.03804
 C  18.48418  -0.92602  8.39180
 C  17.17814  -1.53020  7.48207
 H  16.65926  -2.29521  8.18992
 H  16.45821  -0.62571  7.35960
 H  18.48081  -1.58413  9.34824
 H  18.15498  0.14449  8.68852
 H  20.65444  -0.97875  9.05174
 H  20.38777  -1.64017  7.32490
 C  17.29654  -2.24915  6.02727
 C  15.75889  -2.64187  5.41442
 C  15.14710  -4.14816  5.85137
 H  14.00310  -4.15961  5.67115
 H  15.36489  -4.34563  6.96991
 H  15.64796  -4.96628  5.20477
 H  15.82028  -2.60223  4.26429
 H  15.01549  -1.84216  5.78473
 H  17.80835  -1.53980  5.27467
 H  17.90903  -3.22397  6.10880
 C  -19.51884  -1.00761  -10.59448
 C  -18.92928  -0.55797  -9.41204
 C  -19.73530  0.36113  -8.67052
 C  -20.96752  0.63864  -9.27046
 S  -20.99454  -0.25520  -10.66715
 H  -18.10518  -1.13403  -8.86006
 C  -19.06899  0.90581  -7.31300
 C  -17.46385  1.38846  -7.66722
 C  -16.33626  1.93923  -6.54529
 H  -16.40362  3.09596  -6.54023
 H  -15.29264  1.64563  -6.96245
 H  -16.93977  0.49051  -8.17000
 H  -17.57626  2.23387  -8.44963
 H  -19.64650  1.82762  -6.91713
 H  -19.03786  0.07694  -6.50611
 C  -16.44194  1.39132  -5.01954
 C  -17.35037  2.33633  -3.96165
 C  -18.93705  1.83009  -3.75096
 H  -19.48635  1.79437  -4.76332
 H  -19.47807  2.57407  -3.04683
 H  -18.93522  0.77687  -3.26901
 H  -16.82748  2.32755  -2.93384
 H  -17.37206  3.41626  -4.36732
 H  -15.37500  1.30805  -4.57424
 H  -16.91168  0.33213  -5.02842
 H  20.51393  2.83291  4.82355
 H  22.36572  1.17790  8.72450
 H  -19.10949  -1.68689  -11.29777
 H  -21.72562  1.28499  -8.90835
*
