# ================================================================
# Orca input file made by Matty Jones
# ================================================================
! ZINDO/S 
! NOPOP
! NOMOPRINT
* xyz 0   1
 C  23.80538  -2.23033  8.33854
 C  23.55499  -3.60216  8.28134
 C  23.83889  -4.29868  9.49728
 C  24.31587  -3.47266  10.51979
 S  24.36060  -1.94550  9.87467
 H  23.14398  -4.12970  7.35467
 C  23.60607  -5.90730  9.58531
 C  23.22174  -6.93646  10.92503
 C  21.64291  -7.18227  11.49889
 H  21.29651  -6.17372  11.94987
 H  20.98041  -7.42771  10.58521
 H  23.92310  -6.75443  11.79933
 H  23.50654  -7.99043  10.50546
 H  24.58053  -6.40605  9.16972
 H  22.74490  -6.16708  8.83788
 C  21.46094  -8.34591  12.63359
 C  21.06830  -9.88641  12.03853
 C  22.37303  -10.89492  11.70526
 H  23.31604  -10.25692  11.50206
 H  22.13074  -11.53723  10.77317
 H  22.56120  -11.58836  12.61322
 H  20.46747  -9.74710  11.06485
 H  20.40575  -10.41008  12.82360
 H  22.43893  -8.45014  13.24128
 H  20.60989  -8.04079  13.35634
 C  -25.04664  2.41687  -10.78110
 C  -24.17465  3.49623  -10.63099
 C  -24.73233  4.60245  -9.91719
 C  -26.05133  4.39556  -9.50155
 S  -26.45250  2.87619  -10.03165
 H  -23.08148  3.49713  -10.95719
 C  -23.64700  5.81058  -9.78452
 C  -23.75771  7.44263  -10.25242
 C  -22.19566  8.10240  -9.97731
 H  -22.13669  8.29985  -8.83802
 H  -21.42979  7.27417  -10.24118
 H  -24.01627  7.51606  -11.36547
 H  -24.52668  7.99263  -9.60759
 H  -23.39688  5.89345  -8.63855
 H  -22.65561  5.46594  -10.30488
 C  -21.73302  9.45783  -10.75923
 C  -20.94273  9.21188  -12.24704
 C  -19.26099  9.08086  -12.19892
 H  -18.90017  9.08062  -11.10038
 H  -18.79110  9.97644  -12.76234
 H  -18.94028  8.09386  -12.71235
 H  -21.36054  8.24409  -12.71173
 H  -21.20272  10.10589  -12.92706
 H  -22.66168  10.11159  -10.97207
 H  -21.00337  10.05319  -10.08739
 H  23.66929  -1.52026  7.56337
 H  24.59120  -3.76202  11.50166
 H  -24.85132  1.49736  -11.27094
 H  -26.66608  5.06888  -8.96087
*
