# ================================================================
# Orca input file made by Matty Jones
# ================================================================
! ZINDO/S 
! NOPOP
! NOMOPRINT
* xyz 0   1
 C  0.15670  5.58993  -5.20927
 C  -0.45086  4.42247  -4.74473
 C  0.11907  3.90778  -3.53869
 C  1.18203  4.67268  -3.04843
 S  1.35829  5.92790  -4.11792
 H  -1.32051  3.90474  -5.27062
 C  -0.46100  2.56012  -2.86237
 C  -2.12639  2.38483  -2.50861
 C  -3.43242  1.78065  -3.41834
 H  -3.95130  1.01564  -2.71049
 H  -4.15236  2.68514  -3.54081
 H  -2.12975  1.72672  -1.55217
 H  -2.45558  3.45534  -2.21188
 H  0.04387  2.33210  -1.84867
 H  -0.22279  1.67068  -3.57551
 C  -3.31402  1.06170  -4.87314
 C  -4.85167  0.66898  -5.48599
 C  -5.46346  -0.83731  -5.04904
 H  -6.60746  -0.84876  -5.22925
 H  -5.24568  -1.03478  -3.93050
 H  -4.96260  -1.65543  -5.69564
 H  -4.79028  0.70862  -6.63612
 H  -5.59507  1.46870  -5.11568
 H  -2.80222  1.77105  -5.62574
 H  -2.70153  0.08688  -4.79161
 C  3.39439  2.39952  1.72017
 C  3.14400  1.02768  1.66297
 C  3.42790  0.33116  2.87892
 C  3.90488  1.15718  3.90142
 S  3.94961  2.68435  3.25630
 H  2.73299  0.50014  0.73631
 C  3.19508  -1.27746  2.96694
 C  2.81075  -2.30662  4.30667
 C  1.23192  -2.55243  4.88052
 H  0.88552  -1.54388  5.33150
 H  0.56942  -2.79787  3.96685
 H  3.51211  -2.12459  5.18096
 H  3.09555  -3.36059  3.88709
 H  4.16954  -1.77621  2.55135
 H  2.33391  -1.53724  2.21952
 C  1.04995  -3.71607  6.01522
 C  0.65731  -5.25657  5.42016
 C  1.96204  -6.26507  5.08689
 H  2.90505  -5.62708  4.88369
 H  1.71975  -6.90738  4.15480
 H  2.15021  -6.95852  5.99485
 H  0.05648  -5.11726  4.44648
 H  -0.00524  -5.78023  6.20523
 H  2.02794  -3.82029  6.62291
 H  0.19890  -3.41095  6.73797
 H  -0.09663  6.14376  -6.07685
 H  1.75515  4.48875  -2.17591
 H  3.25830  3.10959  0.94501
 H  4.18021  0.86782  4.88329
*
