# ================================================================
# Orca input file made by Matty Jones
# ================================================================
! ZINDO/S 
! NOPOP
! NOMOPRINT
* xyz 0   1
 C  19.29475  3.96257  10.44216
 C  19.04437  2.59074  10.38496
 C  19.32827  1.89422  11.60091
 C  19.80524  2.72024  12.62341
 S  19.84997  4.24740  11.97829
 H  18.63336  2.06320  9.45830
 C  19.09544  0.28560  11.68893
 C  18.71112  -0.74356  13.02866
 C  17.13229  -0.98937  13.60252
 H  16.78588  0.01918  14.05349
 H  16.46978  -1.23481  12.68884
 H  19.41247  -0.56153  13.90295
 H  18.99592  -1.79753  12.60908
 H  20.06991  -0.21315  11.27334
 H  18.23427  0.02582  10.94151
 C  16.95031  -2.15301  14.73722
 C  16.55768  -3.69351  14.14215
 C  17.86240  -4.70202  13.80889
 H  18.80542  -4.06402  13.60568
 H  17.62011  -5.34433  12.87679
 H  18.05057  -5.39546  14.71684
 H  15.95684  -3.55420  13.16847
 H  15.89513  -4.21718  14.92722
 H  17.92831  -2.25724  15.34490
 H  16.09926  -1.84789  15.45996
 C  -20.20319  -2.69550  -15.87012
 C  -19.08395  -2.23771  -15.17324
 C  -19.30802  -1.03413  -14.43470
 C  -20.61076  -0.53903  -14.54898
 S  -21.40564  -1.60155  -15.54380
 H  -18.07078  -2.76276  -15.21382
 C  -18.04923  -0.45308  -13.60739
 C  -17.50683  1.14311  -13.83328
 C  -18.18135  2.41724  -12.97284
 H  -19.13739  2.74288  -13.52772
 H  -17.42155  3.29532  -13.06707
 H  -16.37598  1.13780  -13.59250
 H  -17.64461  1.38015  -14.95651
 H  -18.26246  -0.58108  -12.46893
 H  -17.10745  -1.10704  -13.84408
 C  -18.47916  2.18678  -11.39027
 C  -17.33517  2.80160  -10.30651
 C  -16.09742  1.77039  -9.82905
 H  -16.27281  0.71476  -10.26671
 H  -16.07855  1.71264  -8.67224
 H  -15.08583  2.18648  -10.20860
 H  -16.85661  3.73349  -10.78840
 H  -17.90903  3.12176  -9.35646
 H  -18.57757  1.05887  -11.16191
 H  -19.48936  2.69231  -11.12823
 H  19.15866  4.67264  9.66700
 H  20.08057  2.43088  13.60528
 H  -20.27034  -3.56021  -16.47952
 H  -21.00724  0.33284  -14.09486
*
