# ================================================================
# Orca input file made by Matty Jones
# ================================================================
! ZINDO/S 
! NOPOP
! NOMOPRINT
* xyz 0   1
 C  5.89962  -2.75917  -6.12312
 C  6.00037  -3.88990  -5.31121
 C  6.15342  -3.59794  -3.91995
 C  6.17362  -2.22977  -3.63183
 S  6.00346  -1.46407  -5.09305
 H  6.40183  -4.86457  -5.77297
 C  6.23218  -4.96229  -3.04084
 C  4.89623  -5.94412  -3.64262
 C  4.14328  -7.48312  -3.49267
 H  3.00684  -7.29835  -3.41135
 H  4.52798  -7.96160  -2.51798
 H  5.12832  -6.01058  -4.77035
 H  4.00725  -5.22064  -3.47235
 H  6.06231  -4.75997  -1.92051
 H  7.21904  -5.53030  -3.21643
 C  4.43973  -8.47989  -4.75685
 C  3.38040  -9.79426  -4.91800
 C  3.82286  -11.18815  -4.09550
 H  4.89138  -11.49954  -4.41184
 H  3.07865  -12.03677  -4.35372
 H  3.79669  -10.98264  -2.95690
 H  3.31209  -10.05305  -6.04075
 H  2.34197  -9.46591  -4.54075
 H  5.51093  -8.90418  -4.66547
 H  4.36277  -7.88221  -5.74536
 C  -0.27635  7.74877  2.55353
 C  -1.30758  6.91114  2.98115
 C  -2.38383  7.59401  3.62893
 C  -2.20153  8.97784  3.71325
 S  -0.73889  9.27941  2.99202
 H  -1.29097  5.78116  2.81924
 C  -3.55885  6.59446  4.10839
 C  -5.17922  6.77292  3.68322
 C  -6.22982  7.61684  4.67208
 H  -5.65197  8.47107  5.18496
 H  -7.07330  8.06337  4.02103
 H  -5.18739  7.30304  2.65318
 H  -5.60636  5.70769  3.54369
 H  -3.56233  6.59537  5.28055
 H  -3.29313  5.50089  3.78462
 C  -6.85878  6.62448  5.80652
 C  -8.19628  5.68541  5.36099
 C  -7.84439  4.11897  4.84547
 H  -7.10892  3.62792  5.59200
 H  -7.37072  4.15109  3.79158
 H  -8.82502  3.50464  4.81043
 H  -8.74288  6.22521  4.50220
 H  -8.89438  5.60948  6.27462
 H  -6.03476  5.89060  6.16018
 H  -7.18786  7.26594  6.71263
 H  5.78161  -2.73372  -7.17622
 H  6.27622  -1.77685  -2.67897
 H  0.61467  7.46601  2.05380
 H  -2.86026  9.68585  4.14728
*
