# ================================================================
# Orca input file made by Matty Jones
# ================================================================
! ZINDO/S 
! NOPOP
! NOMOPRINT
* xyz 0   1
 C  3.14646  -1.55212  -3.89410
 C  3.73601  -1.10248  -2.71166
 C  2.93000  -0.18338  -1.97014
 C  1.69777  0.09413  -2.57008
 S  1.67075  -0.79971  -3.96677
 H  4.56011  -1.67854  -2.15968
 C  3.59630  0.36130  -0.61262
 C  5.20145  0.84395  -0.96684
 C  6.32903  1.39472  0.15509
 H  6.26167  2.55145  0.16015
 H  7.37265  1.10112  -0.26207
 H  5.72553  -0.05400  -1.46962
 H  5.08903  1.68936  -1.74925
 H  3.01879  1.28311  -0.21675
 H  3.62743  -0.46757  0.19427
 C  6.22335  0.84682  1.68084
 C  5.31492  1.79182  2.73873
 C  3.72824  1.28558  2.94942
 H  3.17895  1.24986  1.93706
 H  3.18722  2.02956  3.65355
 H  3.73007  0.23236  3.43137
 H  5.83781  1.78304  3.76654
 H  5.29323  2.87175  2.33306
 H  7.29029  0.76354  2.12614
 H  5.75361  -0.21238  1.67196
 C  0.35478  0.62571  -1.80320
 C  -0.67645  -0.21192  -1.37558
 C  -1.75270  0.47096  -0.72780
 C  -1.57040  1.85478  -0.64348
 S  -0.10776  2.15635  -1.36471
 H  -0.65984  -1.34189  -1.53749
 C  -2.92772  -0.52859  -0.24834
 C  -4.54809  -0.35013  -0.67351
 C  -5.59869  0.49378  0.31535
 H  -5.02084  1.34801  0.82823
 H  -6.44217  0.94031  -0.33570
 H  -4.55626  0.17998  -1.70355
 H  -4.97523  -1.41537  -0.81304
 H  -2.93121  -0.52768  0.92382
 H  -2.66200  -1.62217  -0.57211
 C  -6.22766  -0.49858  1.44979
 C  -7.56515  -1.43764  1.00426
 C  -7.21326  -3.00408  0.48874
 H  -6.47779  -3.49513  1.23527
 H  -6.73959  -2.97197  -0.56515
 H  -8.19389  -3.61842  0.45370
 H  -8.11175  -0.89784  0.14547
 H  -8.26326  -1.51358  1.91789
 H  -5.40363  -1.23245  1.80345
 H  -6.55673  0.14289  2.35590
 H  3.55581  -2.23140  -4.59739
 H  -2.22914  2.56280  -0.20945
*
