# ================================================================
# Orca input file made by Matty Jones
# ================================================================
! ZINDO/S 
! NOPOP
! NOMOPRINT
* xyz 0   1
 C  25.55805  -11.42496  8.21522
 C  26.88470  -11.22523  7.83050
 C  27.84443  -11.77590  8.73602
 C  27.27272  -12.41366  9.84134
 S  25.63294  -12.26476  9.64288
 H  27.35744  -10.22966  7.40072
 C  29.43807  -11.65092  8.50795
 C  29.94406  -10.04708  8.24520
 C  31.56596  -9.62156  7.99406
 H  32.17318  -10.59886  7.90455
 H  31.92703  -9.04994  8.93295
 H  29.37958  -9.68240  7.30879
 H  29.58664  -9.44242  9.16261
 H  30.02401  -12.00920  9.44344
 H  29.76585  -12.28643  7.59600
 C  31.78217  -8.68602  6.67595
 C  32.33281  -9.36989  5.23244
 C  33.13891  -10.83542  5.38482
 H  33.91341  -10.75896  6.24226
 H  33.68911  -11.06886  4.39298
 H  32.37917  -11.67598  5.61571
 H  31.41803  -9.53884  4.55008
 H  33.04727  -8.61597  4.73147
 H  30.77969  -8.16093  6.42148
 H  32.55015  -7.85920  6.95043
 C  -31.85953  6.75280  -5.70192
 C  -31.81145  7.96065  -6.39954
 C  -32.24025  9.09222  -5.63800
 C  -32.62889  8.77629  -4.33244
 S  -32.42439  7.13658  -4.19105
 H  -31.73645  7.97039  -7.54083
 C  -32.18458  10.50630  -6.42393
 C  -30.70331  10.56973  -7.31339
 C  -30.16875  11.79749  -8.35357
 H  -29.91796  12.72830  -7.71892
 H  -31.03185  12.04921  -9.07774
 H  -29.87964  10.46389  -6.50992
 H  -30.69295  9.64168  -7.99497
 H  -33.05678  10.59747  -7.18021
 H  -32.20768  11.40087  -5.69169
 C  -28.85413  11.32547  -9.20588
 C  -27.32656  11.76353  -8.63495
 C  -26.79234  13.20167  -9.32850
 H  -26.49150  13.00427  -10.42912
 H  -25.87775  13.59687  -8.74095
 H  -27.64530  13.98210  -9.29394
 H  -27.37710  11.89611  -7.49334
 H  -26.57738  10.92895  -8.89750
 H  -28.94520  11.74424  -10.28235
 H  -28.84899  10.16750  -9.27611
 H  24.68640  -11.10683  7.70276
 H  27.78099  -12.89211  10.63905
 H  -31.59146  5.79257  -6.06206
 H  -32.98057  9.44484  -3.58883
*
