# ================================================================
# Orca input file made by Matty Jones
# ================================================================
! ZINDO/S 
! NOPOP
! NOMOPRINT
* xyz 0   1
 C  20.75553  -0.35648  14.61042
 C  22.08218  -0.15675  14.22570
 C  23.04191  -0.70742  15.13122
 C  22.47020  -1.34518  16.23654
 S  20.83042  -1.19628  16.03808
 H  22.55492  0.83882  13.79592
 C  24.63555  -0.58244  14.90315
 C  25.14154  1.02140  14.64040
 C  26.76345  1.44692  14.38926
 H  27.37067  0.46962  14.29975
 H  27.12451  2.01854  15.32815
 H  24.57706  1.38608  13.70399
 H  24.78412  1.62605  15.55781
 H  25.22150  -0.94072  15.83864
 H  24.96334  -1.21795  13.99120
 C  26.97965  2.38246  13.07115
 C  27.53029  1.69858  11.62764
 C  28.33639  0.23306  11.78002
 H  29.11089  0.30951  12.63746
 H  28.88659  -0.00039  10.78818
 H  27.57665  -0.60750  12.01091
 H  26.61551  1.52963  10.94528
 H  28.24475  2.45251  11.12667
 H  25.97718  2.90754  12.81668
 H  27.74763  3.20927  13.34563
 C  -20.37778  -0.81152  -13.55780
 C  -21.46135  -1.30297  -14.28735
 C  -22.61033  -0.45219  -14.27089
 C  -22.43315  0.71696  -13.52456
 S  -20.88596  0.63764  -12.93265
 H  -21.88820  -2.38174  -13.97478
 C  -23.89918  -0.94854  -15.10511
 C  -25.48378  -0.61730  -14.67280
 C  -26.10811  -1.67447  -13.52156
 H  -25.81251  -2.75240  -13.81576
 H  -25.61817  -1.41841  -12.50561
 H  -25.54950  0.45733  -14.27611
 H  -26.13305  -0.71134  -15.62457
 H  -23.85222  -2.11757  -15.19299
 H  -23.79314  -0.53980  -16.19984
 C  -27.72560  -1.55937  -13.40323
 C  -28.27685  -0.12643  -12.70476
 C  -28.61200  1.04240  -13.87284
 H  -27.88830  0.92612  -14.76776
 H  -28.48726  2.09478  -13.40851
 H  -29.70076  0.90369  -14.23992
 H  -29.23754  -0.34429  -12.11007
 H  -27.46389  0.28249  -12.00047
 H  -28.19970  -1.65244  -14.45448
 H  -28.11684  -2.43086  -12.74780
 H  19.88388  -0.03835  14.09796
 H  22.97847  -1.82363  17.03425
 H  -19.42983  -1.26838  -13.43026
 H  -23.13978  1.49172  -13.36957
*
