# ================================================================
# Orca input file made by Matty Jones
# ================================================================
! ZINDO/S 
! NOPOP
! NOMOPRINT
* xyz 0   1
 C  23.20197  -8.31306  8.74739
 C  24.52862  -8.11333  8.36267
 C  25.48835  -8.66400  9.26818
 C  24.91664  -9.30176  10.37350
 S  23.27686  -9.15286  10.17505
 H  25.00136  -7.11776  7.93289
 C  27.08199  -8.53902  9.04012
 C  27.58798  -6.93518  8.77737
 C  29.20988  -6.50966  8.52622
 H  29.81710  -7.48696  8.43671
 H  29.57095  -5.93804  9.46512
 H  27.02350  -6.57050  7.84095
 H  27.23056  -6.33053  9.69477
 H  27.66793  -8.89730  9.97561
 H  27.40977  -9.17453  8.12817
 C  29.42609  -5.57412  7.20812
 C  29.97673  -6.25800  5.76460
 C  30.78283  -7.72352  5.91699
 H  31.55733  -7.64707  6.77443
 H  31.33303  -7.95697  4.92514
 H  30.02309  -8.56408  6.14788
 H  29.06195  -6.42695  5.08225
 H  30.69119  -5.50407  5.26364
 H  28.42361  -5.04904  6.95364
 H  30.19407  -4.74731  7.48259
 C  -30.26019  4.13496  -9.66898
 C  -29.41456  5.11532  -9.14773
 C  -30.06842  6.05519  -8.29139
 C  -31.43726  5.81581  -8.13566
 S  -31.76196  4.47275  -9.05279
 H  -28.29355  5.16307  -9.36183
 C  -29.27269  7.26150  -7.58930
 C  -28.20907  8.13278  -8.57242
 C  -27.52724  9.43927  -7.74451
 H  -28.38753  9.95449  -7.16335
 H  -27.14718  10.17793  -8.55305
 H  -27.36461  7.43247  -8.91765
 H  -28.78982  8.53119  -9.48155
 H  -29.96169  8.07752  -7.16385
 H  -28.63973  6.83329  -6.70431
 C  -26.31455  9.12372  -6.70925
 C  -24.76737  9.01178  -7.37008
 C  -24.31384  7.43023  -7.72307
 H  -23.27319  7.22412  -7.25886
 H  -24.26134  7.29214  -8.87059
 H  -25.08497  6.68970  -7.28020
 H  -24.73827  9.62563  -8.34493
 H  -24.01600  9.45120  -6.61541
 H  -26.53594  8.13268  -6.15383
 H  -26.27627  9.97472  -5.92103
 H  22.33032  -7.99493  8.23493
 H  25.42491  -9.78022  11.17121
 H  -29.99770  3.34172  -10.32125
 H  -32.12367  6.37558  -7.55333
*
