# ================================================================
# Orca input file made by Matty Jones
# ================================================================
! ZINDO/S 
! NOPOP
! NOMOPRINT
* xyz 0   1
 C  -6.23508  29.90330  -2.16199
 C  -6.48547  28.53147  -2.21919
 C  -6.20156  27.83495  -1.00324
 C  -5.72459  28.66097  0.01927
 S  -5.67986  30.18813  -0.62585
 H  -6.89648  28.00393  -3.14585
 C  -6.43439  26.22633  -0.91522
 C  -6.81871  25.19717  0.42451
 C  -8.39755  24.95136  0.99837
 H  -8.74395  25.95991  1.44935
 H  -9.06005  24.70592  0.08469
 H  -6.11736  25.37920  1.29881
 H  -6.53392  24.14320  0.00493
 H  -5.45993  25.72758  -1.33081
 H  -7.29556  25.96655  -1.66264
 C  -8.57952  23.78772  2.13307
 C  -8.97216  22.24722  1.53800
 C  -7.66743  21.23871  1.20474
 H  -6.72441  21.87671  1.00154
 H  -7.90972  20.59640  0.27264
 H  -7.47926  20.54527  2.11270
 H  -9.57299  22.38653  0.56433
 H  -9.63470  21.72356  2.32308
 H  -7.60153  23.68350  2.74075
 H  -9.43057  24.09284  2.85581
 C  11.53718  -25.20412  -1.46390
 C  10.20567  -24.93032  -1.14763
 C  9.98473  -24.62060  0.23060
 C  11.14764  -24.64998  1.00654
 S  12.37082  -25.05197  -0.03877
 H  9.36113  -24.91681  -1.91615
 C  8.60973  -24.24189  1.03383
 C  7.06432  -24.97523  1.37101
 C  5.46022  -25.16138  0.78314
 H  4.77039  -24.95401  1.69538
 H  5.30762  -24.30218  0.02700
 H  7.39134  -26.08032  1.51201
 H  6.85053  -24.52257  2.42425
 H  8.23784  -23.24728  0.52819
 H  8.94261  -23.94529  2.11857
 C  5.00138  -26.58167  0.13408
 C  4.67766  -26.67103  -1.51677
 C  4.60798  -25.19473  -2.31154
 H  5.65098  -24.69555  -2.29324
 H  3.83395  -24.51185  -1.78665
 H  4.28026  -25.37056  -3.40802
 H  5.50591  -27.30468  -2.00918
 H  3.66119  -27.20003  -1.65409
 H  5.82276  -27.37117  0.35219
 H  4.03101  -26.92604  0.67268
 H  -6.37117  30.61337  -2.93715
 H  -5.44926  28.37161  1.00113
 H  11.93220  -25.45619  -2.41470
 H  11.23012  -24.45595  2.04536
*
