# ================================================================
# Orca input file made by Matty Jones
# ================================================================
! ZINDO/S 
! NOPOP
! NOMOPRINT
* xyz 0   1
 C  3.13985  -1.06915  -3.60710
 C  3.24060  -2.19988  -2.79519
 C  3.39365  -1.90792  -1.40393
 C  3.41385  -0.53975  -1.11581
 S  3.24369  0.22595  -2.57703
 H  3.64206  -3.17455  -3.25695
 C  3.47241  -3.27227  -0.52482
 C  2.13646  -4.25410  -1.12660
 C  1.38351  -5.79310  -0.97665
 H  0.24707  -5.60833  -0.89533
 H  1.76821  -6.27158  -0.00196
 H  2.36855  -4.32056  -2.25433
 H  1.24748  -3.53062  -0.95633
 H  3.30253  -3.06995  0.59551
 H  4.45927  -3.84028  -0.70041
 C  1.67996  -6.78987  -2.24083
 C  0.62063  -8.10424  -2.40198
 C  1.06308  -9.49813  -1.57948
 H  2.13161  -9.80952  -1.89582
 H  0.31888  -10.34675  -1.83770
 H  1.03692  -9.29262  -0.44088
 H  0.55232  -8.36303  -3.52473
 H  -0.41780  -7.77589  -2.02473
 H  2.75116  -7.21416  -2.14945
 H  1.60300  -6.19219  -3.22934
 C  2.72768  4.65885  2.06135
 C  1.64412  4.16740  1.33180
 C  0.49513  5.01817  1.34826
 C  0.67232  6.18732  2.09459
 S  2.21950  6.10800  2.68650
 H  1.21727  3.08863  1.64437
 C  -0.79372  4.52183  0.51404
 C  -2.37831  4.85307  0.94635
 C  -3.00265  3.79590  2.09759
 H  -2.70705  2.71797  1.80339
 H  -2.51270  4.05196  3.11354
 H  -2.44404  5.92770  1.34304
 H  -3.02758  4.75902  -0.00542
 H  -0.74675  3.35280  0.42616
 H  -0.68768  4.93057  -0.58069
 C  -4.62014  3.91100  2.21592
 C  -5.17138  5.34394  2.91439
 C  -5.50654  6.51277  1.74631
 H  -4.78284  6.39649  0.85139
 H  -5.38180  7.56515  2.21064
 H  -6.59529  6.37406  1.37923
 H  -6.13208  5.12608  3.50909
 H  -4.35843  5.75286  3.61869
 H  -5.09423  3.81793  1.16467
 H  -5.01138  3.03951  2.87135
 H  3.02184  -1.04370  -4.66020
 H  3.51645  -0.08683  -0.16295
 H  3.67563  4.20199  2.18889
 H  -0.03431  6.96208  2.24958
*
