# ================================================================
# Orca input file made by Matty Jones
# ================================================================
! ZINDO/S 
! NOPOP
! NOMOPRINT
* xyz 0   1
 C  9.93513  -9.09829  31.52519
 C  10.03587  -10.22901  32.33711
 C  10.18892  -9.93706  33.72837
 C  10.20913  -8.56889  34.01649
 S  10.03896  -7.80319  32.55526
 H  10.43733  -11.20369  31.87534
 C  10.26769  -11.30141  34.60747
 C  8.93174  -12.28324  34.00569
 C  8.17878  -13.82224  34.15564
 H  7.04234  -13.63747  34.23696
 H  8.56348  -14.30072  35.13033
 H  9.16382  -12.34970  32.87797
 H  8.04276  -11.55976  34.17596
 H  10.09781  -11.09909  35.72781
 H  11.25454  -11.86942  34.43189
 C  8.47523  -14.81901  32.89146
 C  7.41590  -16.13338  32.73031
 C  7.85836  -17.52727  33.55281
 H  8.92689  -17.83866  33.23647
 H  7.11415  -18.37588  33.29459
 H  7.83219  -17.32176  34.69142
 H  7.34759  -16.39217  31.60756
 H  6.37748  -15.80503  33.10757
 H  9.54644  -15.24329  32.98284
 H  8.39827  -14.22133  31.90295
 C  -5.12395  12.08406  -35.87052
 C  -6.48667  11.84460  -35.68730
 C  -7.15108  12.83045  -34.89299
 C  -6.30876  13.85352  -34.44674
 S  -4.80738  13.48961  -35.04996
 H  -7.03592  10.94542  -36.12885
 C  -8.71649  12.83946  -34.50425
 C  -9.42170  11.54856  -33.67417
 C  -9.30362  11.80332  -32.00507
 H  -9.16404  10.76606  -31.50929
 H  -8.35006  12.42985  -31.80693
 H  -10.53198  11.47432  -33.96404
 H  -8.87456  10.57566  -33.94357
 H  -8.96168  13.79414  -33.88417
 H  -9.33495  12.92618  -35.49661
 C  -10.58426  12.54307  -31.32447
 C  -10.58383  14.22565  -31.46116
 C  -11.73535  14.93521  -32.47072
 H  -11.20336  15.64361  -33.21657
 H  -12.50070  15.55135  -31.86153
 H  -12.29607  14.10840  -33.05568
 H  -10.58437  14.58322  -30.37687
 H  -9.57339  14.51069  -31.93214
 H  -11.55900  12.14881  -31.80371
 H  -10.60581  12.29526  -30.19272
 H  9.81711  -9.07284  30.47209
 H  10.31173  -8.11597  34.96935
 H  -4.43636  11.49217  -36.41867
 H  -6.57426  14.68711  -33.84822
*
