# ================================================================
# Orca input file made by Matty Jones
# ================================================================
! ZINDO/S 
! NOPOP
! NOMOPRINT
* xyz 0   1
 C  7.94237  30.45719  -10.00230
 C  8.04311  29.32646  -9.19039
 C  8.19616  29.61841  -7.79913
 C  8.21637  30.98659  -7.51101
 S  8.04621  31.75229  -8.97223
 H  8.44457  28.35179  -9.65215
 C  8.27493  28.25407  -6.92002
 C  6.93898  27.27224  -7.52180
 C  6.18603  25.73324  -7.37185
 H  5.04959  25.91800  -7.29053
 H  6.57073  25.25475  -6.39716
 H  7.17107  27.20578  -8.64953
 H  6.05000  27.99572  -7.35153
 H  8.10505  28.45638  -5.79969
 H  9.26178  27.68605  -7.09561
 C  6.48247  24.73646  -8.63603
 C  5.42315  23.42209  -8.79718
 C  5.86560  22.02820  -7.97468
 H  6.93413  21.71682  -8.29102
 H  5.12140  21.17959  -8.23290
 H  5.83944  22.23371  -6.83608
 H  5.35484  23.16331  -9.91993
 H  4.38472  23.75045  -8.41993
 H  7.55368  24.31218  -8.54465
 H  6.40552  25.33415  -9.62454
 C  -8.75407  -30.37165  9.91723
 C  -8.70599  -29.16380  9.21961
 C  -9.13479  -28.03223  9.98116
 C  -9.52343  -28.34816  11.28671
 S  -9.31893  -29.98786  11.42810
 H  -8.63099  -29.15405  8.07832
 C  -9.07911  -26.61814  9.19522
 C  -7.59785  -26.55472  8.30576
 C  -7.06329  -25.32696  7.26558
 H  -6.81250  -24.39615  7.90023
 H  -7.92638  -25.07523  6.54141
 H  -6.77418  -26.66056  9.10923
 H  -7.58748  -27.48277  7.62419
 H  -9.95132  -26.52697  8.43894
 H  -9.10221  -25.72357  9.92746
 C  -5.74867  -25.79898  6.41327
 C  -4.22110  -25.36091  6.98420
 C  -3.68688  -23.92278  6.29065
 H  -3.38604  -24.12017  5.19003
 H  -2.77228  -23.52758  6.87820
 H  -4.53984  -23.14235  6.32521
 H  -4.27164  -25.22834  8.12581
 H  -3.47192  -26.19549  6.72165
 H  -5.83973  -25.38020  5.33680
 H  -5.74353  -26.95695  6.34304
 H  7.82436  30.48263  -11.05540
 H  8.31897  31.43950  -6.55815
 H  -8.48599  -31.33187  9.55709
 H  -9.87511  -27.67960  12.03032
*
