# ================================================================
# Orca input file made by Matty Jones
# ================================================================
! ZINDO/S 
! NOPOP
! NOMOPRINT
* xyz 0   1
 C  -12.54010  -4.50417  3.55758
 C  -12.79049  -5.87601  3.50039
 C  -12.50659  -6.57253  4.71633
 C  -12.02961  -5.74651  5.73884
 S  -11.98488  -4.21934  5.09372
 H  -13.20150  -6.40355  2.57372
 C  -12.73941  -8.18115  4.80435
 C  -13.12374  -9.21031  6.14408
 C  -14.70257  -9.45612  6.71794
 H  -15.04898  -8.44757  7.16892
 H  -15.36507  -9.70156  5.80426
 H  -12.42239  -9.02828  7.01838
 H  -12.83894  -10.26428  5.72450
 H  -11.76495  -8.67990  4.38876
 H  -13.60058  -8.44093  4.05693
 C  -14.88454  -10.61976  7.85264
 C  -15.27718  -12.16026  7.25757
 C  -13.97245  -13.16876  6.92431
 H  -13.02944  -12.53077  6.72111
 H  -14.21474  -13.81107  5.99221
 H  -13.78428  -13.86221  7.83227
 H  -15.87802  -12.02095  6.28390
 H  -15.93973  -12.68392  8.04265
 H  -13.90655  -10.72398  8.46033
 H  -15.73559  -10.31464  8.57538
 C  17.45095  8.25180  -8.44931
 C  16.08824  8.01234  -8.26609
 C  15.42382  8.99818  -7.47177
 C  16.26614  10.02125  -7.02553
 S  17.76752  9.65734  -7.62875
 H  15.53898  7.11315  -8.70764
 C  13.85841  9.00719  -7.08304
 C  13.15320  7.71629  -6.25296
 C  13.27129  7.97105  -4.58386
 H  13.41087  6.93379  -4.08808
 H  14.22484  8.59758  -4.38572
 H  12.04293  7.64205  -6.54283
 H  13.70034  6.74339  -6.52236
 H  13.61322  9.96187  -6.46296
 H  13.23995  9.09391  -8.07539
 C  11.99064  8.71080  -3.90326
 C  11.99107  10.39338  -4.03995
 C  10.83955  11.10294  -5.04951
 H  11.37154  11.81134  -5.79536
 H  10.07421  11.71908  -4.44032
 H  10.27883  10.27613  -5.63447
 H  11.99054  10.75095  -2.95566
 H  13.00151  10.67842  -4.51093
 H  11.01590  8.31654  -4.38250
 H  11.96909  8.46299  -2.77151
 H  -12.67619  -3.79410  2.78242
 H  -11.75428  -6.03587  6.72070
 H  18.13854  7.65990  -8.99746
 H  16.00064  10.85485  -6.42701
*
