# ================================================================
# Orca input file made by Matty Jones
# ================================================================
! ZINDO/S 
! NOPOP
! NOMOPRINT
* xyz 0   1
 C  3.68579  -6.82444  36.30615
 C  3.78654  -7.95517  37.11806
 C  3.93959  -7.66321  38.50932
 C  3.95979  -6.29504  38.79744
 S  3.78963  -5.52934  37.33622
 H  4.18800  -8.92984  36.65629
 C  4.01835  -9.02756  39.38842
 C  2.68240  -10.00939  38.78664
 C  1.92945  -11.54839  38.93660
 H  0.79301  -11.36362  39.01792
 H  2.31415  -12.02687  39.91128
 H  2.91449  -10.07585  37.65892
 H  1.79342  -9.28591  38.95691
 H  3.84848  -8.82524  40.50876
 H  5.00521  -9.59557  39.21284
 C  2.22590  -12.54516  37.67241
 C  1.16657  -13.85953  37.51127
 C  1.60903  -15.25342  38.33377
 H  2.67755  -15.56481  38.01742
 H  0.86482  -16.10204  38.07555
 H  1.58286  -15.04791  39.47237
 H  1.09826  -14.11832  36.38852
 H  0.12814  -13.53118  37.88852
 H  3.29710  -12.96944  37.76380
 H  2.14894  -11.94748  36.68391
 C  -5.02673  6.24914  -38.20231
 C  -4.15474  7.32849  -38.05220
 C  -4.71242  8.43472  -37.33840
 C  -6.03142  8.22783  -36.92276
 S  -6.43259  6.70846  -37.45286
 H  -3.06157  7.32939  -38.37840
 C  -3.62709  9.64285  -37.20573
 C  -3.73780  11.27490  -37.67363
 C  -2.17575  11.93467  -37.39852
 H  -2.11678  12.13212  -36.25923
 H  -1.40988  11.10644  -37.66239
 H  -3.99636  11.34832  -38.78668
 H  -4.50677  11.82489  -37.02880
 H  -3.37697  9.72572  -36.05976
 H  -2.63570  9.29821  -37.72609
 C  -1.71311  13.29010  -38.18044
 C  -0.92282  13.04414  -39.66825
 C  0.75892  12.91312  -39.62013
 H  1.11974  12.91289  -38.52159
 H  1.22880  13.80871  -40.18355
 H  1.07963  11.92612  -40.13356
 H  -1.34063  12.07635  -40.13294
 H  -1.18281  13.93816  -40.34828
 H  -2.64177  13.94385  -38.39328
 H  -0.98346  13.88546  -37.50860
 H  3.56778  -6.79899  35.25304
 H  4.06239  -5.84212  39.75030
 H  -4.83141  5.32962  -38.69215
 H  -6.64617  8.90114  -36.38208
*
