# ================================================================
# Orca input file made by Matty Jones
# ================================================================
! ZINDO/S 
! NOPOP
! NOMOPRINT
* xyz 0   1
 C  -13.40280  -9.85968  5.27704
 C  -12.07615  -9.65996  4.89232
 C  -11.11642  -10.21062  5.79783
 C  -11.68814  -10.84838  6.90315
 S  -13.32791  -10.69948  6.70470
 H  -11.60341  -8.66438  4.46253
 C  -9.52278  -10.08564  5.56976
 C  -9.01679  -8.48180  5.30702
 C  -7.39489  -8.05628  5.05587
 H  -6.78767  -9.03358  4.96636
 H  -7.03382  -7.48466  5.99476
 H  -9.58128  -8.11712  4.37060
 H  -9.37421  -7.87715  6.22442
 H  -8.93684  -10.44392  6.50526
 H  -9.19500  -10.72115  4.65781
 C  -7.17869  -7.12075  3.73777
 C  -6.62804  -7.80462  2.29425
 C  -5.82194  -9.27014  2.44664
 H  -5.04745  -9.19369  3.30408
 H  -5.27175  -9.50359  1.45479
 H  -6.58168  -10.11070  2.67753
 H  -7.54283  -7.97357  1.61189
 H  -5.91358  -7.05069  1.79329
 H  -8.18116  -6.59566  3.48329
 H  -6.41070  -6.29393  4.01224
 C  12.60531  11.13314  -6.17414
 C  11.68319  10.46609  -5.36627
 C  10.93309  11.32545  -4.50422
 C  11.26457  12.67789  -4.63204
 S  12.45160  12.73841  -5.78864
 H  11.74430  9.34545  -5.17027
 C  9.80873  10.73804  -3.49031
 C  8.64542  9.71590  -4.23360
 C  7.31841  8.80657  -3.63987
 H  7.01211  9.29467  -2.63762
 H  6.45694  8.94449  -4.39907
 H  9.27932  8.93595  -4.74974
 H  8.15951  10.40835  -5.02913
 H  9.21537  11.60435  -2.99327
 H  10.31984  10.11714  -2.65338
 C  7.54381  7.20602  -3.39223
 C  7.44411  6.22330  -4.77936
 C  5.94892  5.64163  -5.29290
 H  6.11379  4.70204  -5.95025
 H  5.41948  6.45875  -5.91909
 H  5.29966  5.36679  -4.37736
 H  8.10878  5.30075  -4.57698
 H  7.87769  6.82745  -5.65172
 H  6.73912  6.82049  -2.65618
 H  8.58735  7.03278  -2.92772
 H  -14.27446  -9.54155  4.76457
 H  -11.17986  -11.32684  7.70086
 H  13.26484  10.70400  -6.88438
 H  10.84500  13.49364  -4.10089
*
