# ================================================================
# Orca input file made by Matty Jones
# ================================================================
! ZINDO/S 
! NOPOP
! NOMOPRINT
* xyz 0   1
 C  16.79084  0.08113  14.03248
 C  18.11750  0.28086  13.64776
 C  19.07722  -0.26981  14.55327
 C  18.50551  -0.90757  15.65859
 S  16.86573  -0.75867  15.46014
 H  18.59024  1.27643  13.21797
 C  20.67086  -0.14483  14.32521
 C  21.17686  1.45901  14.06246
 C  22.79876  1.88453  13.81131
 H  23.40598  0.90723  13.72180
 H  23.15983  2.45615  14.75020
 H  20.61237  1.82369  13.12604
 H  20.81943  2.06366  14.97986
 H  21.25681  -0.50311  15.26070
 H  20.99865  -0.78034  13.41326
 C  23.01496  2.82007  12.49321
 C  23.56560  2.13619  11.04969
 C  24.37171  0.67067  11.20208
 H  25.14620  0.74712  12.05952
 H  24.92190  0.43723  10.21023
 H  23.61196  -0.16989  11.43297
 H  22.65082  1.96724  10.36733
 H  24.28006  2.89012  10.54873
 H  22.01249  3.34515  12.23873
 H  23.78295  3.64689  12.76768
 C  -23.28874  -4.33360  -16.31567
 C  -22.16951  -3.87581  -15.61879
 C  -22.39357  -2.67223  -14.88025
 C  -23.69632  -2.17713  -14.99453
 S  -24.49119  -3.23965  -15.98935
 H  -21.15633  -4.40086  -15.65937
 C  -21.13479  -2.09118  -14.05294
 C  -20.59239  -0.49499  -14.27883
 C  -21.26690  0.77914  -13.41839
 H  -22.22294  1.10478  -13.97326
 H  -20.50711  1.65722  -13.51262
 H  -19.46154  -0.50030  -14.03804
 H  -20.73016  -0.25795  -15.40206
 H  -21.34802  -2.21918  -12.91448
 H  -20.19301  -2.74514  -14.28963
 C  -21.56472  0.54868  -11.83582
 C  -20.42072  1.16350  -10.75206
 C  -19.18297  0.13229  -10.27460
 H  -19.35836  -0.92334  -10.71226
 H  -19.16411  0.07454  -9.11779
 H  -18.17138  0.54837  -10.65415
 H  -19.94216  2.09539  -11.23395
 H  -20.99458  1.48366  -9.80201
 H  -21.66312  -0.57923  -11.60746
 H  -22.57491  1.05421  -11.57378
 H  15.91919  0.39926  13.52002
 H  19.01378  -1.38602  16.45630
 H  -23.35589  -5.19831  -16.92506
 H  -24.09280  -1.30526  -14.54040
*
