# ================================================================
# Orca input file made by Matty Jones
# ================================================================
! ZINDO/S 
! NOPOP
! NOMOPRINT
* xyz 0   1
 C  22.88319  -1.26431  5.51443
 C  22.27563  -2.43178  5.97897
 C  22.84556  -2.94647  7.18501
 C  23.90852  -2.18156  7.67527
 S  24.08478  -0.92635  6.60578
 H  21.40598  -2.94950  5.45308
 C  22.26549  -4.29412  7.86133
 C  20.60010  -4.46942  8.21509
 C  19.29407  -5.07359  7.30536
 H  18.77519  -5.83861  8.01321
 H  18.57413  -4.16910  7.18289
 H  20.59673  -5.12752  9.17153
 H  20.27091  -3.39891  8.51182
 H  22.77036  -4.52214  8.87503
 H  22.50370  -5.18356  7.14819
 C  19.41247  -5.79254  5.85056
 C  17.87482  -6.18527  5.23771
 C  17.26303  -7.69156  5.67466
 H  16.11903  -7.70301  5.49445
 H  17.48081  -7.88902  6.79320
 H  17.76389  -8.50967  5.02806
 H  17.93620  -6.14563  4.08758
 H  17.13142  -5.38555  5.60802
 H  19.92427  -5.08320  5.09796
 H  20.02496  -6.76736  5.93209
 C  -22.73114  0.19247  -6.67576
 C  -21.85915  1.27182  -6.52566
 C  -22.41683  2.37805  -5.81185
 C  -23.73583  2.17116  -5.39622
 S  -24.13700  0.65179  -5.92631
 H  -20.76598  1.27272  -6.85185
 C  -21.33150  3.58618  -5.67919
 C  -21.44221  5.21823  -6.14709
 C  -19.88016  5.87800  -5.87198
 H  -19.82119  6.07545  -4.73269
 H  -19.11429  5.04977  -6.13584
 H  -21.70077  5.29165  -7.26014
 H  -22.21118  5.76822  -5.50226
 H  -21.08138  3.66905  -4.53322
 H  -20.34011  3.24154  -6.19955
 C  -19.41752  7.23343  -6.65390
 C  -18.62723  6.98747  -8.14170
 C  -16.94549  6.85645  -8.09359
 H  -16.58467  6.85622  -6.99505
 H  -16.47561  7.75204  -8.65700
 H  -16.62478  5.86945  -8.60702
 H  -19.04504  6.01968  -8.60640
 H  -18.88722  7.88148  -8.82173
 H  -20.34618  7.88718  -6.86673
 H  -18.68787  7.82879  -5.98206
 H  22.62986  -0.71048  4.64685
 H  24.48164  -2.36550  8.54779
 H  -22.53582  -0.72705  -7.16560
 H  -24.35058  2.84447  -4.85554
*
