# ================================================================
# Orca input file made by Matty Jones
# ================================================================
! ZINDO/S 
! NOPOP
! NOMOPRINT
* xyz 0   1
 C  -11.62619  29.77525  -3.82700
 C  -12.23375  28.60778  -3.36246
 C  -11.66382  28.09309  -2.15642
 C  -10.60086  28.85799  -1.66616
 S  -10.42461  30.11321  -2.73564
 H  -13.10340  28.09006  -3.88834
 C  -12.24389  26.74543  -1.48010
 C  -13.90928  26.57014  -1.12633
 C  -15.21532  25.96597  -2.03606
 H  -15.73420  25.20095  -1.32821
 H  -15.93525  26.87046  -2.15854
 H  -13.91265  25.91204  -0.16989
 H  -14.23847  27.64065  -0.82961
 H  -11.73902  26.51742  -0.46639
 H  -12.00568  25.85600  -2.19324
 C  -15.09691  25.24702  -3.49086
 C  -16.63456  24.85429  -4.10371
 C  -17.24635  23.34800  -3.66677
 H  -18.39035  23.33655  -3.84698
 H  -17.02857  23.15054  -2.54822
 H  -16.74550  22.52989  -4.31336
 H  -16.57318  24.89393  -5.25384
 H  -17.37796  25.65401  -3.73341
 H  -14.58511  25.95636  -4.24346
 H  -14.48443  24.27220  -3.40934
 C  11.81263  -30.59974  1.26453
 C  12.56140  -29.62578  1.92682
 C  11.77539  -28.68629  2.66426
 C  10.39901  -28.91958  2.58385
 S  10.22938  -30.25716  1.61818
 H  13.70377  -29.62283  1.95580
 C  12.45324  -27.48335  3.50854
 C  13.75822  -26.69528  2.79229
 C  14.53561  -25.42205  3.60571
 H  14.65931  -25.70533  4.71605
 H  13.88943  -24.47183  3.51958
 H  14.56374  -27.50111  2.60787
 H  13.39560  -26.27555  1.78120
 H  11.66174  -26.64576  3.69659
 H  12.82281  -27.87801  4.53967
 C  15.98772  -25.20055  2.89597
 C  16.92791  -23.86668  3.31573
 C  16.67943  -22.58425  2.25491
 H  17.42372  -21.73391  2.50162
 H  15.59406  -22.20021  2.36483
 H  16.85403  -22.94890  1.16986
 H  16.65629  -23.53034  4.38182
 H  18.03854  -24.16923  3.27191
 H  15.83045  -25.15377  1.74869
 H  16.63836  -26.13446  3.13005
 H  -11.87952  30.32907  -4.69458
 H  -10.02774  28.67406  -0.79364
 H  12.17889  -31.39151  0.66241
 H  9.62592  -28.35889  3.04382
*
