# ================================================================
# Orca input file made by Matty Jones
# ================================================================
! ZINDO/S 
! NOPOP
! NOMOPRINT
* xyz 0   1
 C  11.57633  -10.57235  29.65433
 C  11.67708  -11.70308  30.46624
 C  11.83013  -11.41113  31.85750
 C  11.85033  -10.04295  32.14562
 S  11.68017  -9.27725  30.68440
 H  12.07854  -12.67775  30.00447
 C  11.90889  -12.77547  32.73660
 C  10.57294  -13.75730  32.13482
 C  9.81999  -15.29630  32.28478
 H  8.68355  -15.11153  32.36610
 H  10.20469  -15.77478  33.25947
 H  10.80503  -13.82376  31.00710
 H  9.68396  -13.03382  32.30509
 H  11.73901  -12.57315  33.85694
 H  12.89575  -13.34348  32.56102
 C  10.11644  -16.29307  31.02060
 C  9.05711  -17.60744  30.85945
 C  9.49956  -19.00133  31.68195
 H  10.56809  -19.31272  31.36560
 H  8.75536  -19.84995  31.42373
 H  9.47340  -18.79582  32.82055
 H  8.98880  -17.86623  29.73670
 H  8.01868  -17.27909  31.23670
 H  11.18764  -16.71736  31.11198
 H  10.03948  -15.69539  30.03209
 C  -6.88404  16.60351  -33.14980
 C  -7.80616  15.93646  -32.34193
 C  -8.55627  16.79581  -31.47989
 C  -8.22478  18.14826  -31.60770
 S  -7.03775  18.20877  -32.76430
 H  -7.74505  14.81582  -32.14594
 C  -9.68062  16.20841  -30.46598
 C  -10.84393  15.18627  -31.20926
 C  -12.17094  14.27694  -30.61553
 H  -12.47724  14.76504  -29.61328
 H  -13.03241  14.41486  -31.37474
 H  -10.21003  14.40632  -31.72540
 H  -11.32984  15.87872  -32.00479
 H  -10.27399  17.07472  -29.96894
 H  -9.16951  15.58751  -29.62904
 C  -11.94554  12.67639  -30.36789
 C  -12.04524  11.69366  -31.75502
 C  -13.54043  11.11200  -32.26857
 H  -13.37556  10.17241  -32.92591
 H  -14.06987  11.92912  -32.89475
 H  -14.18969  10.83715  -31.35302
 H  -11.38057  10.77112  -31.55264
 H  -11.61166  12.29781  -32.62738
 H  -12.75023  12.29086  -29.63184
 H  -10.90200  12.50315  -29.90339
 H  11.45832  -10.54691  28.60123
 H  11.95293  -9.59004  33.09848
 H  -6.22451  16.17437  -33.86005
 H  -8.64435  18.96400  -31.07655
*
