# ================================================================
# Orca input file made by Matty Jones
# ================================================================
! ZINDO/S 
! NOPOP
! NOMOPRINT
* xyz 0   1
 C  21.68946  1.31307  8.51524
 C  21.43907  -0.05877  8.45805
 C  21.72297  -0.75529  9.67399
 C  22.19994  0.07073  10.69650
 S  22.24467  1.59790  10.05138
 H  21.02806  -0.58631  7.53138
 C  21.49015  -2.36390  9.76201
 C  21.10582  -3.39307  11.10174
 C  19.52699  -3.63888  11.67560
 H  19.18058  -2.63033  12.12658
 H  18.86448  -3.88432  10.76192
 H  21.80717  -3.21104  11.97604
 H  21.39062  -4.44704  10.68216
 H  22.46461  -2.86265  9.34642
 H  20.62898  -2.62369  9.01459
 C  19.34501  -4.80252  12.81030
 C  18.95238  -6.34301  12.21523
 C  20.25711  -7.35152  11.88197
 H  21.20012  -6.71353  11.67877
 H  20.01481  -7.99383  10.94987
 H  20.44527  -8.04497  12.78993
 H  18.35154  -6.20371  11.24156
 H  18.28983  -6.86668  13.00031
 H  20.32301  -4.90674  13.41799
 H  18.49397  -4.49739  13.53304
 C  -21.83434  1.21679  -14.69981
 C  -21.24478  1.66643  -13.51738
 C  -22.05080  2.58553  -12.77585
 C  -23.28302  2.86305  -13.37579
 S  -23.31004  1.96920  -14.77248
 H  -20.42068  1.09038  -12.96540
 C  -21.38449  3.13021  -11.41834
 C  -19.77935  3.61286  -11.77256
 C  -18.65176  4.16363  -10.65062
 H  -18.71912  5.32036  -10.64557
 H  -17.60814  3.87003  -11.06778
 H  -19.25527  2.71491  -12.27533
 H  -19.89176  4.45827  -12.55497
 H  -21.96200  4.05202  -11.02246
 H  -21.35336  2.30134  -10.61145
 C  -18.75744  3.61573  -9.12487
 C  -19.66587  4.56073  -8.06698
 C  -21.25255  4.05449  -7.85630
 H  -21.80185  4.01877  -8.86866
 H  -21.79357  4.79847  -7.15216
 H  -21.25072  3.00127  -7.37434
 H  -19.14298  4.55195  -7.03917
 H  -19.68756  5.64066  -8.47265
 H  -17.69050  3.53245  -8.67957
 H  -19.22718  2.55653  -9.13375
 H  21.55337  2.02314  7.74008
 H  22.47528  -0.21863  11.67836
 H  -21.42499  0.53751  -15.40310
 H  -24.04112  3.50939  -13.01368
*
