# ================================================================
# Orca input file made by Matty Jones
# ================================================================
! ZINDO/S 
! NOPOP
! NOMOPRINT
* xyz 0   1
 C  -0.83827  -0.61956  38.37041
 C  -0.73753  -1.75029  39.18232
 C  -0.58448  -1.45834  40.57358
 C  -0.56427  -0.09016  40.86170
 S  -0.73443  0.67554  39.40048
 H  -0.33607  -2.72496  38.72055
 C  -0.50571  -2.82268  41.45268
 C  -1.84166  -3.80451  40.85091
 C  -2.59461  -5.34351  41.00086
 H  -3.73105  -5.15874  41.08218
 H  -2.20991  -5.82199  41.97555
 H  -1.60957  -3.87097  39.72318
 H  -2.73064  -3.08103  41.02117
 H  -0.67559  -2.62036  42.57302
 H  0.48114  -3.39069  41.27710
 C  -2.29817  -6.34028  39.73668
 C  -3.35749  -7.65465  39.57553
 C  -2.91504  -9.04854  40.39803
 H  -1.84651  -9.35993  40.08168
 H  -3.65925  -9.89716  40.13981
 H  -2.94120  -8.84303  41.53663
 H  -3.42580  -7.91344  38.45278
 H  -4.39592  -7.32630  39.95278
 H  -1.22696  -6.76457  39.82806
 H  -2.37512  -5.74260  38.74817
 C  -0.19671  1.14875  -43.33070
 C  0.92252  1.60653  -42.63382
 C  0.69845  2.81011  -41.89527
 C  -0.60429  3.30521  -42.00956
 S  -1.39916  2.24269  -43.00437
 H  1.93569  1.08148  -42.67439
 C  1.95724  3.39117  -41.06797
 C  2.49964  4.98735  -41.29385
 C  1.82513  6.26148  -40.43342
 H  0.86909  6.58712  -40.98829
 H  2.58492  7.13957  -40.52764
 H  3.63049  4.98204  -41.05307
 H  2.36187  5.22440  -42.41708
 H  1.74401  3.26316  -39.92950
 H  2.89902  2.73721  -41.30466
 C  1.52731  6.03103  -38.85084
 C  2.67130  6.64585  -37.76708
 C  3.90906  5.61464  -37.28962
 H  3.73367  4.55900  -37.72729
 H  3.92792  5.55689  -36.13282
 H  4.92065  6.03072  -37.66918
 H  3.14987  7.57773  -38.24897
 H  2.09745  6.96601  -36.81703
 H  1.42891  4.90311  -38.62248
 H  0.51712  6.53655  -38.58881
 H  -0.95628  -0.59412  37.31731
 H  -1.00077  4.17709  -41.55543
*
