# ================================================================
# Orca input file made by Matty Jones
# ================================================================
! ZINDO/S 
! NOPOP
! NOMOPRINT
* xyz 0   1
 C  -7.15727  30.86932  -4.98610
 C  -7.76483  29.70185  -4.52156
 C  -7.19489  29.18716  -3.31551
 C  -6.13194  29.95207  -2.82526
 S  -5.95568  31.20728  -3.89474
 H  -8.63448  29.18413  -5.04744
 C  -7.77497  27.83951  -2.63919
 C  -9.44036  27.66421  -2.28543
 C  -10.74639  27.06004  -3.19516
 H  -11.26527  26.29502  -2.48731
 H  -11.46633  27.96453  -3.31763
 H  -9.44372  27.00611  -1.32899
 H  -9.76955  28.73472  -1.98871
 H  -7.27010  27.61149  -1.62549
 H  -7.53676  26.95007  -3.35234
 C  -10.62799  26.34109  -4.64996
 C  -12.16564  25.94836  -5.26281
 C  -12.77743  24.44207  -4.82586
 H  -13.92143  24.43062  -5.00608
 H  -12.55965  24.24461  -3.70732
 H  -12.27657  23.62396  -5.47246
 H  -12.10425  25.98800  -6.41294
 H  -12.90904  26.74808  -4.89251
 H  -10.11619  27.05043  -5.40256
 H  -10.01550  25.36627  -4.56843
 C  13.85268  -27.42853  2.64143
 C  12.52117  -27.15472  2.95770
 C  12.30023  -26.84500  4.33593
 C  13.46314  -26.87439  5.11188
 S  14.68632  -27.27638  4.06656
 H  11.67663  -27.14121  2.18919
 C  10.92523  -26.46629  5.13917
 C  9.37982  -27.19963  5.47634
 C  7.77572  -27.38579  4.88847
 H  7.08589  -27.17841  5.80072
 H  7.62312  -26.52659  4.13234
 H  9.70684  -28.30473  5.61734
 H  9.16603  -26.74697  6.52958
 H  10.55334  -25.47168  4.63353
 H  11.25811  -26.16970  6.22390
 C  7.31688  -28.80607  4.23941
 C  6.99316  -28.89544  2.58856
 C  6.92348  -27.41913  1.79380
 H  7.96648  -26.91995  1.81209
 H  6.14945  -26.73625  2.31869
 H  6.59576  -27.59496  0.69731
 H  7.82141  -29.52908  2.09616
 H  5.97669  -29.42443  2.45125
 H  8.13826  -29.59557  4.45752
 H  6.34651  -29.15044  4.77801
 H  -7.41060  31.42315  -5.85368
 H  -5.55881  29.76813  -1.95273
 H  14.24769  -27.68059  1.69063
 H  13.54562  -26.68035  6.15070
*
