# ================================================================
# Orca input file made by Matty Jones
# ================================================================
! ZINDO/S 
! NOPOP
! NOMOPRINT
* xyz 0   1
 C  -10.80965  -6.95101  6.61748
 C  -11.53344  -7.96249  7.25066
 C  -10.72372  -8.90349  7.95999
 C  -9.35363  -8.63368  7.88654
 S  -9.21810  -7.26431  6.96086
 H  -12.67166  -8.04299  7.21921
 C  -11.29439  -10.18397  8.77792
 C  -12.62790  -10.07513  9.84727
 C  -13.01001  -11.52657  10.68156
 H  -13.31849  -11.15007  11.73975
 H  -11.98797  -12.06710  10.78440
 H  -13.54739  -9.78532  9.21987
 H  -12.40114  -9.26235  10.62468
 H  -10.43050  -10.61170  9.44156
 H  -11.58540  -11.01167  8.01590
 C  -14.10948  -12.67628  10.28764
 C  -13.77777  -14.12822  11.12229
 C  -14.82665  -15.43438  10.94357
 H  -14.86175  -15.75819  9.83435
 H  -15.88393  -15.12651  11.29734
 H  -14.44324  -16.31531  11.59166
 H  -12.74489  -14.48260  10.74433
 H  -13.70751  -13.88189  12.24526
 H  -14.10483  -12.88434  9.15663
 H  -15.16499  -12.33452  10.61240
 C  16.34681  10.30124  -11.95959
 C  14.98409  10.06178  -11.77637
 C  14.31968  11.04763  -10.98206
 C  15.16200  12.07069  -10.53581
 S  16.66337  11.70679  -11.13903
 H  14.43484  9.16260  -12.21792
 C  12.75427  11.05664  -10.59333
 C  12.04906  9.76574  -9.76325
 C  12.16714  10.02050  -8.09414
 H  12.30672  8.98323  -7.59837
 H  13.12070  10.64702  -7.89601
 H  10.93878  9.69150  -10.05311
 H  12.59620  8.79283  -10.03264
 H  12.50908  12.01132  -9.97325
 H  12.13581  11.14336  -11.58568
 C  10.88650  10.76025  -7.41354
 C  10.88693  12.44283  -7.55024
 C  9.73541  13.15238  -8.55979
 H  10.26740  13.86079  -9.30564
 H  8.97006  13.76853  -7.95060
 H  9.17469  12.32557  -9.14476
 H  10.88639  12.80039  -6.46594
 H  11.89737  12.72787  -8.02122
 H  9.91176  10.36598  -7.89278
 H  10.86495  10.51243  -6.28179
 H  -11.19596  -6.15115  6.03904
 H  -8.56648  -9.18827  8.32973
 H  17.03440  9.70934  -12.50775
 H  14.89650  12.90429  -9.93729
*
