# ================================================================
# Orca input file made by Matty Jones
# ================================================================
! ZINDO/S 
! NOPOP
! NOMOPRINT
* xyz 0   1
 C  -1.66401  1.90366  -3.54537
 C  -0.84200  2.79010  -2.84793
 C  -0.26037  2.23851  -1.66399
 C  -0.62494  0.90980  -1.42535
 S  -1.63355  0.49325  -2.67420
 H  -0.62242  3.85478  -3.19815
 C  0.74970  3.02828  -0.67129
 C  2.08055  4.10529  -0.94492
 C  2.78849  4.91297  -2.27596
 H  3.93222  4.77455  -2.20840
 H  2.39917  4.41732  -3.24094
 H  2.97475  3.47488  -0.54692
 H  1.88102  4.95653  -0.18410
 H  1.26789  2.21910  -0.00532
 H  0.06287  3.65829  0.04907
 C  2.43742  6.51167  -2.28547
 C  3.19173  7.46029  -3.47102
 C  2.80121  9.10020  -3.40845
 H  2.46077  9.37833  -2.33830
 H  1.94568  9.31793  -4.15701
 H  3.73237  9.72638  -3.69282
 H  4.33143  7.35925  -3.33715
 H  2.88358  7.05504  -4.50326
 H  1.29650  6.64584  -2.41708
 H  2.74736  6.96315  -1.26473
 C  -0.35107  -0.14584  -0.17203
 C  -0.60146  -1.51767  -0.22923
 C  -0.31756  -2.21419  0.98672
 C  0.15942  -1.38818  2.00922
 S  0.20415  0.13899  1.36410
 H  -1.01247  -2.04522  -1.15589
 C  -0.55038  -3.82281  1.07474
 C  -0.93470  -4.85198  2.41447
 C  -2.51354  -5.09778  2.98833
 H  -2.85994  -4.08923  3.43931
 H  -3.17604  -5.34323  2.07465
 H  -0.23335  -4.66995  3.28877
 H  -0.64991  -5.90595  1.99489
 H  0.42408  -4.32156  0.65915
 H  -1.41155  -4.08259  0.32732
 C  -2.69551  -6.26142  4.12303
 C  -3.08815  -7.80192  3.52796
 C  -1.78342  -8.81043  3.19470
 H  -0.84041  -8.17243  2.99149
 H  -2.02571  -9.45274  2.26260
 H  -1.59525  -9.50388  4.10265
 H  -3.68898  -7.66261  2.55428
 H  -3.75070  -8.32559  4.31304
 H  -1.71752  -6.36565  4.73071
 H  -3.54656  -5.95630  4.84577
 H  -2.19567  2.09232  -4.44277
 H  0.43475  -1.67753  2.99109
*
