# ================================================================
# Orca input file made by Matty Jones
# ================================================================
! ZINDO/S 
! NOPOP
! NOMOPRINT
* xyz 0   1
 C  10.60873  21.48981  -14.48785
 C  11.72797  21.94760  -13.79097
 C  11.50390  23.15118  -13.05243
 C  10.20116  23.64628  -13.16671
 S  9.40628  22.58376  -14.16152
 H  12.74114  21.42255  -13.83154
 C  12.76269  23.73223  -12.22512
 C  13.30509  25.32842  -12.45100
 C  12.63057  26.60255  -11.59057
 H  11.67453  26.92819  -12.14544
 H  13.39037  27.48064  -11.68480
 H  14.43594  25.32311  -12.21022
 H  13.16731  25.56547  -13.57423
 H  12.54946  23.60423  -11.08665
 H  13.70447  23.07828  -12.46181
 C  12.33276  26.37210  -10.00800
 C  13.47675  26.98692  -8.92423
 C  14.71450  25.95571  -8.44678
 H  14.53912  24.90007  -8.88444
 H  14.73337  25.89796  -7.28997
 H  15.72609  26.37179  -8.82633
 H  13.95531  27.91880  -9.40612
 H  12.90290  27.30708  -7.97418
 H  12.23436  25.24418  -9.77963
 H  11.32256  26.87762  -9.74596
 C  -14.88182  -29.03668  9.98652
 C  -14.13305  -28.06272  10.64881
 C  -14.91906  -27.12323  11.38625
 C  -16.29545  -27.35652  11.30584
 S  -16.46507  -28.69410  10.34017
 H  -12.99068  -28.05978  10.67779
 C  -14.24121  -25.92029  12.23053
 C  -12.93623  -25.13223  11.51428
 C  -12.15884  -23.85900  12.32770
 H  -12.03515  -24.14228  13.43804
 H  -12.80503  -22.90877  12.24157
 H  -12.13071  -25.93805  11.32986
 H  -13.29886  -24.71249  10.50319
 H  -15.03271  -25.08270  12.41858
 H  -13.87164  -26.31495  13.26166
 C  -10.70673  -23.63749  11.61796
 C  -9.76654  -22.30362  12.03772
 C  -10.01502  -21.02120  10.97690
 H  -9.27074  -20.17085  11.22361
 H  -11.10039  -20.63715  11.08682
 H  -9.84042  -21.38584  9.89185
 H  -10.03816  -21.96728  13.10381
 H  -8.65591  -22.60618  11.99390
 H  -10.86400  -23.59071  10.47069
 H  -10.05609  -24.57141  11.85204
 H  10.54158  20.62510  -15.09724
 H  9.80468  24.51816  -12.71258
 H  -14.51556  -29.82845  9.38440
 H  -17.06853  -26.79584  11.76581
*
