# ================================================================
# Orca input file made by Matty Jones
# ================================================================
! ZINDO/S 
! NOPOP
! NOMOPRINT
* xyz 0   1
 C  22.33725  4.49098  8.19600
 C  21.72969  3.32351  8.66054
 C  22.29962  2.80882  9.86658
 C  23.36258  3.57372  10.35683
 S  23.53883  4.82894  9.28735
 H  20.86004  2.80579  8.13465
 C  21.71955  1.46116  10.54290
 C  20.05416  1.28587  10.89666
 C  18.74812  0.68170  9.98693
 H  18.22925  -0.08332  10.69478
 H  18.02819  1.58619  9.86446
 H  20.05079  0.62777  11.85310
 H  19.72497  2.35638  11.19339
 H  22.22442  1.23315  11.55660
 H  21.95776  0.57173  9.82976
 C  18.86653  -0.03725  8.53213
 C  17.32888  -0.42998  7.91928
 C  16.71709  -1.93627  8.35623
 H  15.57309  -1.94772  8.17601
 H  16.93487  -2.13373  9.47477
 H  17.21794  -2.75438  7.70963
 H  17.39026  -0.39034  6.76915
 H  16.58548  0.36974  8.28959
 H  19.37833  0.67209  7.77953
 H  19.47901  -1.01207  8.61366
 C  -14.97673  -1.39782  -9.00692
 C  -16.06029  -1.88927  -9.73647
 C  -17.20928  -1.03850  -9.72001
 C  -17.03209  0.13065  -8.97368
 S  -15.48491  0.05133  -8.38177
 H  -16.48715  -2.96804  -9.42390
 C  -18.49813  -1.53485  -10.55423
 C  -20.08272  -1.20360  -10.12192
 C  -20.70706  -2.26077  -8.97068
 H  -20.41146  -3.33870  -9.26488
 H  -20.21711  -2.00471  -7.95473
 H  -20.14845  -0.12897  -9.72523
 H  -20.73199  -1.29765  -11.07369
 H  -18.45116  -2.70387  -10.64211
 H  -18.39209  -1.12610  -11.64896
 C  -22.32455  -2.14567  -8.85235
 C  -22.87579  -0.71273  -8.15388
 C  -23.21095  0.45610  -9.32196
 H  -22.48725  0.33981  -10.21688
 H  -23.08621  1.50848  -8.85763
 H  -24.29970  0.31738  -9.68903
 H  -23.83649  -0.93060  -7.55918
 H  -22.06284  -0.30381  -7.44958
 H  -22.79864  -2.23874  -9.90360
 H  -22.71579  -3.01716  -8.19692
 H  22.08392  5.04480  7.32841
 H  23.93570  3.38979  11.22936
 H  -14.02878  -1.85468  -8.87938
 H  -17.73872  0.90541  -8.81869
*
