# ================================================================
# Orca input file made by Matty Jones
# ================================================================
! ZINDO/S 
! NOPOP
! NOMOPRINT
* xyz 0   1
 C  18.59489  4.57475  -26.21606
 C  19.92154  4.77447  -26.60078
 C  20.88127  4.22380  -25.69526
 C  20.30956  3.58604  -24.58994
 S  18.66978  3.73494  -24.78840
 H  20.39428  5.77004  -27.03056
 C  22.47491  4.34878  -25.92333
 C  22.98090  5.95262  -26.18608
 C  24.60281  6.37815  -26.43722
 H  25.21003  5.40084  -26.52673
 H  24.96388  6.94977  -25.49833
 H  22.41642  6.31731  -27.12249
 H  22.62348  6.55728  -25.26867
 H  23.06086  3.99051  -24.98784
 H  22.80270  3.71327  -26.83528
 C  24.81901  7.31368  -27.75533
 C  25.36965  6.62981  -29.19884
 C  26.17575  5.16428  -29.04646
 H  26.95025  5.24074  -28.18902
 H  26.72595  4.93084  -30.03830
 H  25.41601  4.32373  -28.81557
 H  24.45487  6.46086  -29.88120
 H  26.08411  7.38373  -29.69981
 H  23.81654  7.83877  -28.00980
 H  25.58699  8.14050  -27.48085
 C  -22.12625  -1.60829  25.13690
 C  -22.02551  -2.73902  25.94881
 C  -21.87246  -2.44707  27.34007
 C  -21.85225  -1.07889  27.62819
 S  -22.02241  -0.31320  26.16697
 H  -21.62405  -3.71370  25.48704
 C  -21.79369  -3.81142  28.21917
 C  -23.12964  -4.79324  27.61739
 C  -23.88259  -6.33224  27.76735
 H  -25.01903  -6.14748  27.84867
 H  -23.49789  -6.81073  28.74204
 H  -22.89755  -4.85971  26.48967
 H  -24.01862  -4.06977  27.78766
 H  -21.96357  -3.60910  29.33951
 H  -20.80684  -4.37943  28.04359
 C  -23.58615  -7.32902  26.50317
 C  -24.64547  -8.64339  26.34202
 C  -24.20302  -10.03728  27.16452
 H  -23.13449  -10.34866  26.84817
 H  -24.94723  -10.88589  26.90630
 H  -24.22918  -9.83177  28.30312
 H  -24.71378  -8.90217  25.21927
 H  -25.68390  -8.31503  26.71927
 H  -22.51494  -7.75330  26.59455
 H  -23.66310  -6.73134  25.51466
 H  17.72324  4.89287  -26.72852
 H  20.81783  3.10759  -23.79223
 H  -22.24426  -1.58285  24.08380
 H  -21.74965  -0.62598  28.58105
*
