# ================================================================
# Orca input file made by Matty Jones
# ================================================================
! ZINDO/S 
! NOPOP
! NOMOPRINT
* xyz 0   1
 C  11.77123  24.21512  -15.63009
 C  11.87197  23.08439  -14.81818
 C  12.02502  23.37635  -13.42692
 C  12.04523  24.74452  -13.13880
 S  11.87506  25.51022  -14.60002
 H  12.27343  22.10972  -15.27995
 C  12.10379  22.01200  -12.54782
 C  10.76784  21.03017  -13.14960
 C  10.01488  19.49117  -12.99964
 H  8.87844  19.67594  -12.91832
 H  10.39958  19.01269  -12.02495
 H  10.99992  20.96371  -14.27732
 H  9.87886  21.75365  -12.97933
 H  11.93391  22.21432  -11.42748
 H  13.09064  21.44399  -12.72340
 C  10.31133  18.49440  -14.26383
 C  9.25200  17.18003  -14.42497
 C  9.69446  15.78614  -13.60247
 H  10.76299  15.47475  -13.91882
 H  8.95025  14.93752  -13.86069
 H  9.66829  15.99165  -12.46387
 H  9.18369  16.92124  -15.54772
 H  8.21358  17.50838  -14.04772
 H  11.38254  18.07011  -14.17244
 H  10.23437  19.09208  -15.25233
 C  -13.07777  -24.54307  12.33280
 C  -12.32900  -23.56911  12.99509
 C  -13.11502  -22.62962  13.73253
 C  -14.49140  -22.86291  13.65212
 S  -14.66102  -24.20049  12.68644
 H  -11.18664  -23.56616  13.02407
 C  -12.43717  -21.42668  14.57681
 C  -11.13218  -20.63861  13.86056
 C  -10.35480  -19.36538  14.67398
 H  -10.23110  -19.64866  15.78432
 H  -11.00098  -18.41516  14.58785
 H  -10.32666  -21.44444  13.67614
 H  -11.49481  -20.21888  12.84947
 H  -13.22866  -20.58909  14.76486
 H  -12.06759  -21.82134  15.60794
 C  -8.90269  -19.14388  13.96424
 C  -7.96249  -17.81001  14.38400
 C  -8.21098  -16.52758  13.32318
 H  -7.46669  -15.67723  13.56989
 H  -9.29634  -16.14354  13.43310
 H  -8.03637  -16.89223  12.23813
 H  -8.23412  -17.47367  15.45009
 H  -6.85186  -18.11256  14.34018
 H  -9.05996  -19.09710  12.81696
 H  -8.25205  -20.07779  14.19832
 H  11.65321  24.24057  -16.68319
 H  12.14783  25.19744  -12.18594
 H  -12.71151  -25.33484  11.73068
 H  -15.26449  -22.30222  14.11209
*
