# ================================================================
# Orca input file made by Matty Jones
# ================================================================
! ZINDO/S 
! NOPOP
! NOMOPRINT
* xyz 0   1
 C  14.21254  27.54478  -14.10311
 C  14.31328  26.41405  -13.29120
 C  14.46633  26.70600  -11.89994
 C  14.48654  28.07418  -11.61182
 S  14.31637  28.83988  -13.07304
 H  14.71474  25.43937  -13.75297
 C  14.54510  25.34166  -11.02084
 C  13.20915  24.35983  -11.62262
 C  12.45619  22.82083  -11.47266
 H  11.31975  23.00559  -11.39134
 H  12.84089  22.34234  -10.49797
 H  13.44123  24.29337  -12.75034
 H  12.32017  25.08330  -11.45235
 H  14.37522  25.54397  -9.90050
 H  15.53195  24.77364  -11.19642
 C  12.75264  21.82405  -12.73684
 C  11.69331  20.50968  -12.89799
 C  12.13577  19.11579  -12.07549
 H  13.20430  18.80441  -12.39184
 H  11.39156  18.26718  -12.33371
 H  12.10960  19.32130  -10.93689
 H  11.62501  20.25090  -14.02074
 H  10.65489  20.83804  -12.52074
 H  13.82385  21.39977  -12.64546
 H  12.67568  22.42174  -13.72535
 C  -8.19199  -23.92957  12.04738
 C  -9.27731  -24.62537  12.58202
 C  -10.31881  -23.78509  13.08548
 C  -10.05455  -22.41889  12.94770
 S  -8.56711  -22.32382  12.22043
 H  -9.77914  -25.65181  12.29442
 C  -11.72492  -24.23431  13.74819
 C  -12.91133  -24.63566  12.59515
 C  -13.78184  -23.26790  12.04301
 H  -13.20295  -22.33568  12.38727
 H  -13.69220  -23.31289  10.88456
 H  -12.40597  -25.13727  11.69607
 H  -13.66134  -25.35470  13.08619
 H  -12.15739  -23.43517  14.46268
 H  -11.55605  -25.19984  14.38430
 C  -15.35804  -23.06323  12.41671
 C  -16.31611  -23.48375  11.07708
 C  -17.97723  -23.58315  11.30595
 H  -18.21001  -24.50777  11.96292
 H  -18.49308  -23.70435  10.27589
 H  -18.36290  -22.62546  11.82515
 H  -15.94412  -24.49917  10.68061
 H  -16.13539  -22.67075  10.27548
 H  -15.65964  -23.73330  13.30483
 H  -15.57208  -21.96034  12.68151
 H  14.09452  27.57022  -15.15621
 H  14.58914  28.52709  -10.65896
 H  -7.31318  -24.34095  11.62067
 H  -10.67502  -21.61278  13.24569
*
