# ================================================================
# Orca input file made by Matty Jones
# ================================================================
! ZINDO/S 
! NOPOP
! NOMOPRINT
* xyz 0   1
 C  21.02521  1.51574  13.50206
 C  20.30142  0.50425  14.13524
 C  21.11114  -0.43674  14.84457
 C  22.48122  -0.16693  14.77112
 S  22.61676  1.20243  13.84543
 H  19.16320  0.42375  14.10378
 C  20.54047  -1.71722  15.66250
 C  19.20696  -1.60838  16.73185
 C  18.82485  -3.05982  17.56613
 H  18.51637  -2.68332  18.62433
 H  19.84688  -3.60035  17.66898
 H  18.28746  -1.31857  16.10445
 H  19.43371  -0.79560  17.50926
 H  21.40436  -2.14495  16.32613
 H  20.24945  -2.54492  14.90048
 C  17.72538  -4.20953  17.17221
 C  18.05708  -5.66147  18.00686
 C  17.00820  -6.96763  17.82814
 H  16.97310  -7.29144  16.71893
 H  15.95093  -6.65976  18.18192
 H  17.39161  -7.84857  18.47624
 H  19.08996  -6.01585  17.62891
 H  18.12734  -5.41514  19.12984
 H  17.73003  -4.41759  16.04121
 H  16.66986  -3.86777  17.49698
 C  -21.30733  -0.64606  -19.38041
 C  -20.18810  -0.18827  -18.68353
 C  -20.41217  1.01531  -17.94499
 C  -21.71491  1.51041  -18.05927
 S  -22.50978  0.44789  -19.05408
 H  -19.17493  -0.71332  -18.72410
 C  -19.15338  1.59636  -17.11768
 C  -18.61098  3.19255  -17.34356
 C  -19.28549  4.46668  -16.48313
 H  -20.24153  4.79232  -17.03800
 H  -18.52570  5.34477  -16.57736
 H  -17.48013  3.18724  -17.10278
 H  -18.74875  3.42960  -18.46680
 H  -19.36661  1.46836  -15.97921
 H  -18.21160  0.94241  -17.35437
 C  -19.58331  4.23623  -14.90056
 C  -18.43931  4.85105  -13.81680
 C  -17.20156  3.81984  -13.33934
 H  -17.37695  2.76420  -13.77700
 H  -17.18270  3.76209  -12.18253
 H  -16.18997  4.23592  -13.71889
 H  -17.96075  5.78293  -14.29868
 H  -19.01317  5.17121  -12.86675
 H  -19.68171  3.10831  -14.67220
 H  -20.59350  4.74175  -14.63852
 H  20.63889  2.31560  12.92361
 H  23.26838  -0.72152  15.21431
 H  -21.37448  -1.51077  -19.98980
 H  -22.11139  2.38229  -17.60514
*
