# ================================================================
# Orca input file made by Matty Jones
# ================================================================
! ZINDO/S 
! NOPOP
! NOMOPRINT
* xyz 0   1
 C  2.42899  -2.98183  -1.90953
 C  1.39776  -3.81946  -1.48192
 C  0.32151  -3.13658  -0.83413
 C  0.50381  -1.75276  -0.74981
 S  1.96645  -1.45118  -1.47104
 H  1.41437  -4.94943  -1.64382
 C  -0.85351  -4.13613  -0.35468
 C  -2.47388  -3.95767  -0.77984
 C  -3.52448  -3.11376  0.20902
 H  -2.94663  -2.25953  0.72189
 H  -4.36796  -2.66723  -0.44203
 H  -2.48205  -3.42756  -1.80988
 H  -2.90102  -5.02291  -0.91937
 H  -0.85700  -4.13522  0.81749
 H  -0.58779  -5.22971  -0.67844
 C  -4.15345  -4.10612  1.34345
 C  -5.49094  -5.04518  0.89793
 C  -5.13905  -6.61162  0.38241
 H  -4.40358  -7.10267  1.12894
 H  -4.66538  -6.57951  -0.67148
 H  -6.11969  -7.22596  0.34737
 H  -6.03754  -4.50538  0.03914
 H  -6.18905  -5.12112  1.81156
 H  -3.32942  -4.83999  1.69712
 H  -4.48252  -3.46465  2.24957
 C  -0.10757  -0.41619  0.09499
 C  0.76442  0.66317  0.24510
 C  0.20675  1.76940  0.95890
 C  -1.11226  1.56251  1.37454
 S  -1.51343  0.04314  0.84444
 H  1.85759  0.66407  -0.08110
 C  1.29207  2.97753  1.09157
 C  1.18137  4.60957  0.62367
 C  2.74341  5.26935  0.89878
 H  2.80239  5.46680  2.03807
 H  3.50928  4.44111  0.63491
 H  0.92281  4.68300  -0.48938
 H  0.41240  5.15957  1.26850
 H  1.54220  3.06040  2.23754
 H  2.28347  2.63288  0.57121
 C  3.20606  6.62477  0.11686
 C  3.99635  6.37882  -1.37095
 C  5.67809  6.24780  -1.32283
 H  6.03891  6.24756  -0.22429
 H  6.14797  7.14338  -1.88625
 H  5.99880  5.26080  -1.83626
 H  3.57854  5.41103  -1.83564
 H  3.73636  7.27283  -2.05097
 H  2.27739  7.27853  -0.09598
 H  3.93571  7.22013  0.78870
 H  3.32001  -3.26459  -2.40926
 H  -1.72701  2.23582  1.91522
*
