# ================================================================
# Orca input file made by Matty Jones
# ================================================================
! ZINDO/S 
! NOPOP
! NOMOPRINT
* xyz 0   1
 C  27.13977  -6.57750  1.80079
 C  26.53221  -7.74497  2.26533
 C  27.10214  -8.25966  3.47138
 C  28.16510  -7.49475  3.96163
 S  28.34135  -6.23953  2.89215
 H  25.66256  -8.26269  1.73945
 C  26.52206  -9.60731  4.14770
 C  24.85668  -9.78260  4.50146
 C  23.55064  -10.38678  3.59173
 H  23.03176  -11.15180  4.29958
 H  22.83071  -9.48229  3.46926
 H  24.85331  -10.44071  5.45790
 H  24.52749  -8.71210  4.79818
 H  27.02694  -9.83533  5.16140
 H  26.76028  -10.49675  3.43456
 C  23.66904  -11.10573  2.13693
 C  22.13140  -11.49846  1.52408
 C  21.51960  -13.00475  1.96103
 H  20.37561  -13.01620  1.78081
 H  21.73739  -13.20221  3.07957
 H  22.02046  -13.82286  1.31443
 H  22.19278  -11.45882  0.37395
 H  21.38800  -10.69874  1.89439
 H  24.18085  -10.39639  1.38433
 H  24.28153  -12.08055  2.21846
 C  -26.45848  6.16650  -1.15104
 C  -26.41040  7.37435  -1.84866
 C  -26.83920  8.50591  -1.08711
 C  -27.22784  8.18999  0.21844
 S  -27.02334  6.55028  0.35983
 H  -26.33540  7.38409  -2.98995
 C  -26.78353  9.92000  -1.87304
 C  -25.30226  9.98343  -2.76251
 C  -24.76770  11.21118  -3.80269
 H  -24.51691  12.14200  -3.16804
 H  -25.63079  11.46291  -4.52686
 H  -24.47859  9.87758  -1.95904
 H  -25.29189  9.05538  -3.44408
 H  -27.65573  10.01117  -2.62933
 H  -26.80662  10.81457  -1.14081
 C  -23.45308  10.73916  -4.65500
 C  -21.92551  11.17723  -4.08407
 C  -21.39129  12.61536  -4.77762
 H  -21.09045  12.41797  -5.87824
 H  -20.47669  13.01057  -4.19007
 H  -22.24425  13.39579  -4.74306
 H  -21.97605  11.30981  -2.94246
 H  -21.17633  10.34265  -4.34662
 H  -23.54414  11.15794  -5.73147
 H  -23.44794  9.58119  -4.72523
 H  26.88643  -6.02367  0.93321
 H  28.73822  -7.67868  4.83416
 H  -26.19040  5.20627  -1.51118
 H  -27.57952  8.85854  0.96205
*
