# ================================================================
# Orca input file made by Matty Jones
# ================================================================
! ZINDO/S 
! NOPOP
! NOMOPRINT
* xyz 0   1
 C  30.77373  -5.01223  -1.13739
 C  30.16617  -6.17969  -0.67285
 C  30.73610  -6.69438  0.53319
 C  31.79906  -5.92948  1.02345
 S  31.97531  -4.67426  -0.04604
 H  29.29652  -6.69741  -1.19874
 C  30.15603  -8.04204  1.20951
 C  28.49064  -8.21733  1.56327
 C  27.18460  -8.82151  0.65354
 H  26.66573  -9.58652  1.36139
 H  26.46467  -7.91701  0.53107
 H  28.48727  -8.87543  2.51972
 H  28.16145  -7.14682  1.86000
 H  30.66090  -8.27005  2.22321
 H  30.39424  -8.93148  0.49637
 C  27.30301  -9.54046  -0.80125
 C  25.76536  -9.93318  -1.41410
 C  25.15357  -11.43947  -0.97716
 H  24.00957  -11.45092  -1.15737
 H  25.37135  -11.63694  0.14138
 H  25.65442  -12.25758  -1.62376
 H  25.82674  -9.89354  -2.56423
 H  25.02196  -9.13346  -1.04380
 H  27.81481  -8.83111  -1.55386
 H  27.91549  -10.51528  -0.71973
 C  -24.58845  10.54684  -1.62325
 C  -25.51057  9.87979  -0.81539
 C  -26.26068  10.73914  0.04666
 C  -25.92919  12.09159  -0.08116
 S  -24.74216  12.15210  -1.23776
 H  -25.44946  8.75914  -0.61939
 C  -27.38503  10.15174  1.06057
 C  -28.54834  9.12960  0.31729
 C  -29.87535  8.22027  0.91101
 H  -30.18165  8.70837  1.91327
 H  -30.73682  8.35819  0.15181
 H  -27.91444  8.34965  -0.19886
 H  -29.03425  9.82205  -0.47825
 H  -27.97840  11.01805  1.55761
 H  -26.87392  9.53084  1.89750
 C  -29.64995  6.61972  1.15865
 C  -29.74965  5.63699  -0.22848
 C  -31.24484  5.05533  -0.74202
 H  -31.07997  4.11574  -1.39937
 H  -31.77428  5.87245  -1.36821
 H  -31.89410  4.78048  0.17352
 H  -29.08498  4.71445  -0.02610
 H  -29.31607  6.24114  -1.10084
 H  -30.45464  6.23419  1.89470
 H  -28.60641  6.44648  1.62316
 H  30.52040  -4.45840  -2.00497
 H  32.37218  -6.11341  1.89597
 H  -23.92892  10.11770  -2.33350
 H  -26.34876  12.90733  0.45000
*
