# ================================================================
# Orca input file made by Matty Jones
# ================================================================
! ZINDO/S 
! NOPOP
! NOMOPRINT
* xyz 0   1
 C  5.58629  -9.02573  33.12468
 C  5.68703  -10.15646  33.93659
 C  5.84008  -9.86450  35.32785
 C  5.86029  -8.49633  35.61598
 S  5.69013  -7.73063  34.15475
 H  6.08849  -11.13113  33.47483
 C  5.91885  -11.22885  36.20696
 C  4.58290  -12.21068  35.60518
 C  3.82995  -13.74968  35.75513
 H  2.69351  -13.56491  35.83645
 H  4.21465  -14.22816  36.72982
 H  4.81499  -12.27714  34.47745
 H  3.69392  -11.48720  35.77545
 H  5.74897  -11.02653  37.32729
 H  6.90570  -11.79686  36.03138
 C  4.12639  -14.74645  34.49095
 C  3.06707  -16.06082  34.32980
 C  3.50952  -17.45471  35.15230
 H  4.57805  -17.76610  34.83596
 H  2.76532  -18.30333  34.89408
 H  3.48336  -17.24920  36.29090
 H  2.99876  -16.31961  33.20705
 H  2.02864  -15.73247  34.70705
 H  5.19760  -15.17074  34.58233
 H  4.04944  -14.14877  33.50244
 C  -7.15473  9.60533  -36.64464
 C  -6.30909  10.58569  -36.12339
 C  -6.96296  11.52556  -35.26705
 C  -8.33180  11.28618  -35.11132
 S  -8.65650  9.94312  -36.02845
 H  -5.18808  10.63344  -36.33749
 C  -6.16722  12.73187  -34.56496
 C  -5.10361  13.60315  -35.54808
 C  -4.42178  14.90964  -34.72018
 H  -5.28207  15.42486  -34.13901
 H  -4.04172  15.64830  -35.52871
 H  -4.25914  12.90284  -35.89331
 H  -5.68435  14.00156  -36.45721
 H  -6.85623  13.54789  -34.13952
 H  -5.53427  12.30366  -33.67997
 C  -3.20908  14.59409  -33.68491
 C  -1.66190  14.48215  -34.34575
 C  -1.20838  12.90060  -34.69873
 H  -0.16773  12.69449  -34.23452
 H  -1.15588  12.76251  -35.84625
 H  -1.97950  12.16007  -34.25587
 H  -1.63280  15.09600  -35.32059
 H  -0.91053  14.92157  -33.59107
 H  -3.43048  13.60304  -33.12949
 H  -3.17080  15.44509  -32.89669
 H  5.46828  -9.00029  32.07158
 H  5.96289  -8.04342  36.56884
 H  -6.89224  8.81209  -37.29691
 H  -9.01821  11.84595  -34.52900
*
