# ================================================================
# Orca input file made by Matty Jones
# ================================================================
! ZINDO/S 
! NOPOP
! NOMOPRINT
* xyz 0   1
 C  5.47317  -2.35036  -4.37742
 C  4.11045  -2.58982  -4.19421
 C  3.44604  -1.60398  -3.39989
 C  4.28836  -0.58091  -2.95364
 S  5.78973  -0.94482  -3.55686
 H  3.56120  -3.48901  -4.63576
 C  1.88063  -1.59497  -3.01116
 C  1.17542  -2.88586  -2.18108
 C  1.29350  -2.63110  -0.51197
 H  1.43308  -3.66837  -0.01620
 H  2.24706  -2.00458  -0.31384
 H  0.06514  -2.96011  -2.47095
 H  1.72256  -3.85877  -2.45047
 H  1.63544  -0.64029  -2.39108
 H  1.26217  -1.50824  -4.00351
 C  0.01286  -1.89135  0.16863
 C  0.01328  -0.20877  0.03193
 C  -1.13823  0.50078  -0.97762
 H  -0.60624  1.20919  -1.72347
 H  -1.90358  1.11692  -0.36843
 H  -1.69895  -0.32603  -1.56259
 H  0.01275  0.14879  1.11623
 H  1.02373  0.07626  -0.43905
 H  -0.96189  -2.28562  -0.31061
 H  -0.00869  -2.13917  1.30037
 C  2.07187  3.64315  0.21416
 C  1.14975  2.97610  1.02203
 C  0.39965  3.83545  1.88407
 C  0.73113  5.18790  1.75626
 S  1.91816  5.24841  0.59966
 H  1.21086  1.85545  1.21802
 C  -0.72471  3.24805  2.89798
 C  -1.88801  2.22591  2.15470
 C  -3.21503  1.31657  2.74843
 H  -3.52133  1.80468  3.75068
 H  -4.07649  1.45450  1.98922
 H  -1.25412  1.44596  1.63855
 H  -2.37392  2.91836  1.35917
 H  -1.31807  4.11436  3.39502
 H  -0.21360  2.62715  3.73492
 C  -2.98963  -0.28397  2.99607
 C  -3.08932  -1.26670  1.60894
 C  -4.58452  -1.84836  1.09539
 H  -4.41965  -2.78795  0.43805
 H  -5.11396  -1.03124  0.46921
 H  -5.23378  -2.12321  2.01094
 H  -2.42466  -2.18924  1.81132
 H  -2.65575  -0.66255  0.73658
 H  -3.79432  -0.66950  3.73211
 H  -1.94609  -0.45721  3.46057
 H  6.16076  -2.94226  -4.92558
 H  4.02286  0.25269  -2.35512
 H  2.73140  3.21400  -0.49609
 H  0.31156  6.00364  2.28741
*
