# ================================================================
# Orca input file made by Matty Jones
# ================================================================
! ZINDO/S 
! NOPOP
! NOMOPRINT
* xyz 0   1
 C  -0.19157  -6.39437  -2.21336
 C  0.65406  -5.41401  -1.69211
 C  0.00020  -4.47414  -0.83577
 C  -1.36864  -4.71352  -0.68004
 S  -1.69334  -6.05658  -1.59717
 H  1.77507  -5.36627  -1.90621
 C  0.79593  -3.26783  -0.13368
 C  1.85955  -2.39655  -1.11680
 C  2.54138  -1.09006  -0.28890
 H  1.68109  -0.57484  0.29227
 H  2.92144  -0.35140  -1.09744
 H  2.70401  -3.09686  -1.46203
 H  1.27881  -1.99814  -2.02593
 H  0.10693  -2.45181  0.29176
 H  1.42889  -3.69604  0.75131
 C  3.75407  -1.40561  0.74637
 C  5.30125  -1.51755  0.08553
 C  5.75478  -3.09910  -0.26745
 H  6.79543  -3.30522  0.19676
 H  5.80728  -3.23720  -1.41497
 H  4.98365  -3.83963  0.17541
 H  5.33036  -0.90370  -0.88931
 H  6.05262  -1.07813  0.84021
 H  3.53268  -2.39666  1.30179
 H  3.79235  -0.55461  1.53459
 C  -4.14699  -0.66464  2.28586
 C  -4.09891  0.54321  1.58824
 C  -4.52771  1.67478  2.34979
 C  -4.91635  1.35885  3.65534
 S  -4.71185  -0.28085  3.79673
 H  -4.02391  0.55296  0.44696
 C  -4.47204  3.08887  1.56386
 C  -2.99077  3.15229  0.67440
 C  -2.45621  4.38005  -0.36579
 H  -2.20542  5.31086  0.26887
 H  -3.31931  4.63178  -1.08996
 H  -2.16710  3.04645  1.47786
 H  -2.98041  2.22424  -0.00718
 H  -5.34424  3.18004  0.80757
 H  -4.49514  3.98344  2.29609
 C  -1.14159  3.90803  -1.21810
 C  0.38598  4.34609  -0.64717
 C  0.92020  5.78423  -1.34072
 H  1.22104  5.58684  -2.44133
 H  1.83480  6.17943  -0.75317
 H  0.06724  6.56466  -1.30616
 H  0.33544  4.47867  0.49445
 H  1.13516  3.51152  -0.90971
 H  -1.23266  4.32681  -2.29456
 H  -1.13645  2.75006  -1.28832
 H  0.07092  -7.18761  -2.86563
 H  -2.05505  -4.15375  -0.09772
 H  -3.87892  -1.62486  1.92573
 H  -5.26803  2.02741  4.39895
*
