# ================================================================
# Orca input file made by Matty Jones
# ================================================================
! ZINDO/S 
! NOPOP
! NOMOPRINT
* xyz 0   1
 C  8.10621  -11.54236  33.59456
 C  8.95184  -10.56201  34.11581
 C  8.29798  -9.62214  34.97215
 C  6.92913  -9.86152  35.12788
 S  6.60444  -11.20458  34.21075
 H  10.07285  -10.51426  33.90171
 C  9.09371  -8.41583  35.67424
 C  10.15733  -7.54455  34.69112
 C  10.83916  -6.23806  35.51903
 H  9.97887  -5.72284  36.10019
 H  11.21922  -5.49940  34.71049
 H  11.00179  -8.24486  34.34589
 H  9.57658  -7.14614  33.78199
 H  8.40471  -7.59981  36.09968
 H  9.72667  -8.84403  36.55923
 C  12.05185  -6.55361  36.55429
 C  13.59903  -6.66555  35.89346
 C  14.05255  -8.24709  35.54047
 H  15.09321  -8.45321  36.00468
 H  14.10506  -8.38519  34.39295
 H  13.28143  -8.98763  35.98334
 H  13.62813  -6.05170  34.91861
 H  14.35040  -6.22613  36.64813
 H  11.83046  -7.54465  37.10971
 H  12.09013  -5.70261  37.34251
 C  -6.43065  8.33515  -36.51648
 C  -7.76216  8.60896  -36.20021
 C  -7.98310  8.91868  -34.82198
 C  -6.82018  8.88929  -34.04603
 S  -5.59701  8.48730  -35.09135
 H  -8.60670  8.62247  -36.96873
 C  -9.35810  9.29739  -34.01875
 C  -10.90351  8.56405  -33.68157
 C  -12.50761  8.37789  -34.26944
 H  -13.19744  8.58527  -33.35720
 H  -12.66021  9.23710  -35.02558
 H  -10.57648  7.45895  -33.54057
 H  -11.11729  9.01671  -32.62833
 H  -9.72999  10.29200  -34.52438
 H  -9.02522  9.59398  -32.93401
 C  -12.96645  6.95761  -34.91850
 C  -13.29017  6.86824  -36.56935
 C  -13.35984  8.34455  -37.36412
 H  -12.31684  8.84373  -37.34582
 H  -14.13388  9.02743  -36.83922
 H  -13.68757  8.16872  -38.46060
 H  -12.46192  6.23460  -37.06176
 H  -14.30663  6.33925  -36.70667
 H  -12.14507  6.16811  -34.70039
 H  -13.93682  6.61324  -34.37990
 H  8.36870  -12.33561  32.94229
 H  6.24272  -9.30175  35.71021
 H  -6.03563  8.08309  -37.46728
 H  -6.73770  9.08333  -33.00721
*
