# ================================================================
# Orca input file made by Matty Jones
# ================================================================
! ZINDO/S 
! NOPOP
! NOMOPRINT
* xyz 0   1
 C  10.23420  -14.89856  32.03690
 C  11.10619  -13.81920  32.18700
 C  10.54852  -12.71297  32.90081
 C  9.22951  -12.91986  33.31644
 S  8.82834  -14.43924  32.78634
 H  12.19936  -13.81830  31.86081
 C  11.63384  -11.50484  33.03347
 C  11.52314  -9.87280  32.56557
 C  13.08518  -9.21302  32.84068
 H  13.14416  -9.01558  33.97997
 H  13.85105  -10.04126  32.57681
 H  11.26458  -9.79937  31.45252
 H  10.75417  -9.32280  33.21040
 H  11.88397  -11.42197  34.17944
 H  12.62524  -11.84949  32.51311
 C  13.54783  -7.85760  32.05876
 C  14.33812  -8.10355  30.57096
 C  16.01986  -8.23457  30.61907
 H  16.38068  -8.23481  31.71761
 H  16.48974  -7.33899  30.05566
 H  16.34056  -9.22157  30.10564
 H  13.92031  -9.07134  30.10626
 H  14.07813  -7.20954  29.89093
 H  12.61916  -7.20384  31.84593
 H  14.27748  -7.26224  32.73060
 C  -8.33115  10.53645  -33.33501
 C  -9.66266  10.81025  -33.01875
 C  -9.88359  11.11997  -31.64051
 C  -8.72068  11.09059  -30.86457
 S  -7.49751  10.68859  -31.90988
 H  -10.50720  10.82376  -33.78726
 C  -11.25859  11.49868  -30.83728
 C  -12.80401  10.76534  -30.50010
 C  -14.40810  10.57919  -31.08797
 H  -15.09794  10.78656  -30.17573
 H  -14.56071  11.43839  -31.84411
 H  -12.47698  9.66025  -30.35910
 H  -13.01779  11.21800  -29.44687
 H  -11.63049  12.49329  -31.34292
 H  -10.92572  11.79528  -29.75254
 C  -14.86694  9.15890  -31.73704
 C  -15.19067  9.06954  -33.38788
 C  -15.26034  10.54584  -34.18265
 H  -14.21734  11.04502  -34.16435
 H  -16.03438  11.22872  -33.65776
 H  -15.58807  10.37001  -35.27913
 H  -14.36242  8.43589  -33.88029
 H  -16.20713  8.54054  -33.52520
 H  -14.04556  8.36940  -31.51893
 H  -15.83732  8.81453  -31.19844
 H  10.42953  -15.81807  31.54705
 H  8.61476  -12.24655  33.85712
 H  -7.93613  10.28438  -34.28581
 H  -8.63820  11.28462  -29.82575
*
