# ================================================================
# Orca input file made by Matty Jones
# ================================================================
! ZINDO/S 
! NOPOP
! NOMOPRINT
* xyz 0   1
 C  10.13698  -9.06363  34.36869
 C  8.77427  -9.30309  34.55190
 C  8.10985  -8.31725  35.34622
 C  8.95218  -7.29418  35.79247
 S  10.45355  -7.65809  35.18924
 H  8.22501  -10.20228  34.11035
 C  6.54445  -8.30824  35.73495
 C  5.83923  -9.59914  36.56503
 C  5.95732  -9.34437  38.23414
 H  6.09690  -10.38164  38.72991
 H  6.91088  -8.71785  38.43227
 H  4.72896  -9.67338  36.27516
 H  6.38638  -10.57204  36.29564
 H  6.29925  -7.35356  36.35503
 H  5.92599  -8.22151  34.74260
 C  4.67667  -8.60462  38.91474
 C  4.67710  -6.92205  38.77804
 C  3.52558  -6.21249  37.76848
 H  4.05757  -5.50408  37.02264
 H  2.76024  -5.59635  38.37767
 H  2.96486  -7.03930  37.18352
 H  4.67657  -6.56448  39.86234
 H  5.68754  -6.63701  38.30706
 H  3.70193  -8.99889  38.43550
 H  4.65512  -8.85244  40.04648
 C  -2.08181  8.26260  -38.11596
 C  -3.41333  8.53640  -37.79970
 C  -3.63426  8.84612  -36.42147
 C  -2.47135  8.81674  -35.64552
 S  -1.24817  8.41475  -36.69083
 H  -4.25787  8.54991  -38.56821
 C  -5.00926  9.22484  -35.61823
 C  -6.55468  8.49149  -35.28106
 C  -8.15877  8.30534  -35.86893
 H  -8.84861  8.51271  -34.95668
 H  -8.31137  9.16454  -36.62506
 H  -6.22765  7.38640  -35.14006
 H  -6.76846  8.94415  -34.22782
 H  -5.38115  10.21945  -36.12387
 H  -4.67638  9.52143  -34.53350
 C  -8.61761  6.88505  -36.51799
 C  -8.94133  6.79569  -38.16884
 C  -9.01101  8.27199  -38.96360
 H  -7.96801  8.77117  -38.94531
 H  -9.78505  8.95487  -38.43871
 H  -9.33873  8.09616  -40.06009
 H  -8.11309  6.16204  -38.66124
 H  -9.95780  6.26669  -38.30615
 H  -7.79623  6.09555  -36.29988
 H  -9.58799  6.54068  -35.97939
 H  10.82457  -9.65553  33.82053
 H  8.68668  -6.46058  36.39098
 H  -1.68680  8.01053  -39.06677
 H  -2.38887  9.01077  -34.60670
*
