# ================================================================
# Orca input file made by Matty Jones
# ================================================================
! ZINDO/S 
! NOPOP
! NOMOPRINT
* xyz 0   1
 C  2.43759  -3.40278  -2.21846
 C  3.30958  -2.32343  -2.06836
 C  2.75190  -1.21720  -1.35455
 C  1.43290  -1.42409  -0.93892
 S  1.03173  -2.94346  -1.46901
 H  4.40274  -2.32253  -2.39455
 C  3.83722  -0.00907  -1.22189
 C  3.72652  1.62298  -1.68979
 C  5.28856  2.28275  -1.41468
 H  5.34754  2.48020  -0.27539
 H  6.05444  1.45452  -1.67854
 H  3.46796  1.69640  -2.80284
 H  2.95755  2.17297  -1.04495
 H  4.08735  0.07380  -0.07592
 H  4.82862  -0.35371  -1.74225
 C  5.75121  3.63818  -2.19660
 C  6.54150  3.39222  -3.68440
 C  8.22324  3.26120  -3.63629
 H  8.58406  3.26097  -2.53775
 H  8.69312  4.15679  -4.19970
 H  8.54395  2.27420  -4.14972
 H  6.12369  2.42443  -4.14910
 H  6.28151  4.28624  -4.36443
 H  4.82254  4.29193  -2.40943
 H  6.48086  4.23354  -1.52476
 C  0.31855  -0.62167  0.03394
 C  -0.85732  -1.21332  0.49782
 C  -1.66065  -0.35555  1.31216
 C  -1.11638  0.91986  1.49221
 S  0.31010  0.91913  0.64627
 H  -1.16294  -2.28740  0.26256
 C  -3.05040  -0.91366  1.93094
 C  -4.56518  -0.13103  1.82546
 C  -5.78816  -0.91604  2.71647
 H  -5.22605  -1.53896  3.51931
 H  -6.35450  -0.06323  3.26597
 H  -4.87309  -0.23188  0.70988
 H  -4.59969  0.96508  2.09496
 H  -2.88731  -1.06316  3.07924
 H  -3.25378  -1.97306  1.47831
 C  -6.90961  -1.88537  2.04405
 C  -7.81469  -2.69256  3.23394
 C  -9.08825  -1.83137  3.91831
 H  -8.67220  -1.12745  4.73810
 H  -9.83854  -2.57430  4.39334
 H  -9.62114  -1.20791  3.10337
 H  -7.09694  -3.00424  4.07963
 H  -8.25853  -3.63747  2.74262
 H  -7.64078  -1.26075  1.40394
 H  -6.40420  -2.67813  1.37562
 H  2.63291  -4.32230  -2.70830
 H  -1.52911  1.71969  2.05215
*
