# ================================================================
# Orca input file made by Matty Jones
# ================================================================
! ZINDO/S 
! NOPOP
! NOMOPRINT
* xyz 0   1
 C  4.47925  -6.68894  -2.34712
 C  4.52734  -5.48110  -3.04474
 C  4.09853  -4.34953  -2.28319
 C  3.70989  -4.66546  -0.97764
 S  3.91439  -6.30516  -0.83624
 H  4.60234  -5.47135  -4.18602
 C  4.15421  -2.93544  -3.06912
 C  5.63548  -2.87201  -3.95858
 C  6.17003  -1.64426  -4.99877
 H  6.42083  -0.71345  -4.36411
 H  5.30694  -1.39253  -5.72294
 H  6.45914  -2.97786  -3.15511
 H  5.64584  -3.80007  -4.64016
 H  3.28200  -2.84427  -3.82541
 H  4.13111  -2.04087  -2.33689
 C  7.48465  -2.11628  -5.85108
 C  9.01223  -1.67821  -5.28015
 C  9.54644  -0.24008  -5.97370
 H  9.84729  -0.43747  -7.07431
 H  10.46104  0.15513  -5.38615
 H  8.69348  0.54035  -5.93914
 H  8.96168  -1.54563  -4.13853
 H  9.76140  -2.51279  -5.54269
 H  7.39359  -1.69750  -6.92754
 H  7.48980  -3.27425  -5.92130
 C  -1.22883  2.66554  3.88384
 C  -2.31415  1.96974  4.41848
 C  -3.35565  2.81002  4.92195
 C  -3.09139  4.17622  4.78416
 S  -1.60396  4.27129  4.05689
 H  -2.81599  0.94330  4.13089
 C  -4.76177  2.36080  5.58465
 C  -5.94817  1.95945  4.43162
 C  -6.81868  3.32722  3.87948
 H  -6.23979  4.25943  4.22373
 H  -6.72904  3.28222  2.72103
 H  -5.44282  1.45784  3.53253
 H  -6.69819  1.24042  4.92265
 H  -5.19423  3.15995  6.29914
 H  -4.59290  1.39528  6.22076
 C  -8.39488  3.53188  4.25318
 C  -9.35295  3.11137  2.91354
 C  -11.01408  3.01197  3.14242
 H  -11.24685  2.08735  3.79939
 H  -11.52992  2.89076  2.11236
 H  -11.39974  3.96965  3.66162
 H  -8.98096  2.09594  2.51708
 H  -9.17223  3.92436  2.11194
 H  -8.69648  2.86181  5.14129
 H  -8.60893  4.63478  4.51798
 H  4.74733  -7.64917  -2.70725
 H  3.35822  -3.99690  -0.23403
 H  -0.35003  2.25417  3.45713
 H  -3.71187  4.98233  5.08216
*
