# ================================================================
# Orca input file made by Matty Jones
# ================================================================
! ZINDO/S 
! NOPOP
! NOMOPRINT
* xyz 0   1
 C  2.61231  -3.63252  -1.76471
 C  1.52699  -4.32832  -1.23007
 C  0.48549  -3.48804  -0.72660
 C  0.74975  -2.12184  -0.86438
 S  2.23718  -2.02677  -1.59165
 H  1.02515  -5.35476  -1.51766
 C  -0.92063  -3.93726  -0.06390
 C  -2.10703  -4.33862  -1.21693
 C  -2.97754  -2.97085  -1.76907
 H  -2.39865  -2.03864  -1.42482
 H  -2.88790  -3.01584  -2.92752
 H  -1.60168  -4.84022  -2.11602
 H  -2.85705  -5.05765  -0.72590
 H  -1.35309  -3.13812  0.65060
 H  -0.75176  -4.90279  0.57221
 C  -4.55374  -2.76618  -1.39537
 C  -5.51181  -3.18670  -2.73501
 C  -7.17294  -3.28610  -2.50613
 H  -7.40571  -4.21072  -1.84916
 H  -7.68878  -3.40731  -3.53619
 H  -7.55860  -2.32841  -1.98693
 H  -5.13982  -4.20212  -3.13147
 H  -5.33109  -2.37370  -3.53661
 H  -4.85534  -3.43625  -0.50725
 H  -4.76779  -1.66329  -1.13057
 C  0.16783  -0.91636  0.04770
 C  0.91660  0.05759  0.70999
 C  0.13059  0.99709  1.44742
 C  -1.24579  0.76380  1.36702
 S  -1.41541  -0.57378  0.40134
 H  2.05897  0.06054  0.73897
 C  0.80844  2.20003  2.29171
 C  2.11343  2.98809  1.57546
 C  2.89081  4.26132  2.38888
 H  3.01451  3.97804  3.49922
 H  2.24463  5.21154  2.30275
 H  2.91895  2.18227  1.39104
 H  1.75080  3.40783  0.56437
 H  0.01694  3.03762  2.47976
 H  1.17801  1.80537  3.32284
 C  4.34292  4.48283  1.67913
 C  5.28312  5.81670  2.09890
 C  5.03463  7.09912  1.03808
 H  5.77892  7.94947  1.28478
 H  3.94926  7.48317  1.14800
 H  5.20923  6.73448  -0.04697
 H  5.01149  6.15304  3.16499
 H  6.39375  5.51414  2.05508
 H  4.18565  4.52961  0.53186
 H  4.99356  3.54891  1.91322
 H  3.49111  -4.04390  -2.19141
 H  -2.01888  1.32448  1.82698
*
