# ================================================================
# Orca input file made by Matty Jones
# ================================================================
! ZINDO/S 
! NOPOP
! NOMOPRINT
* xyz 0   1
 C  1.87114  -2.19865  -1.15565
 C  1.91922  -0.99080  -1.85327
 C  1.49042  0.14076  -1.09172
 C  1.10178  -0.17516  0.21383
 S  1.30628  -1.81487  0.35522
 H  1.99422  -0.98106  -2.99455
 C  1.54609  1.55485  -1.87765
 C  3.02736  1.61828  -2.76712
 C  3.56192  2.84603  -3.80730
 H  3.81271  3.77685  -3.17265
 H  2.69883  3.09776  -4.53147
 H  3.85103  1.51243  -1.96365
 H  3.03772  0.69023  -3.44869
 H  0.67389  1.64602  -2.63394
 H  1.52300  2.44942  -1.14542
 C  4.87654  2.37401  -4.65961
 C  6.40411  2.81208  -4.08868
 C  6.93833  4.25021  -4.78223
 H  7.23917  4.05282  -5.88284
 H  7.85293  4.64542  -4.19468
 H  6.08537  5.03064  -4.74767
 H  6.35357  2.94466  -2.94706
 H  7.15329  1.97750  -4.35123
 H  4.78548  2.79279  -5.73607
 H  4.88168  1.21604  -4.72983
 C  0.10720  0.61642  1.31032
 C  -0.81491  -0.05063  2.11819
 C  -1.56502  0.80872  2.98024
 C  -1.23353  2.16116  2.85242
 S  -0.04650  2.22168  1.69582
 H  -0.75380  -1.17128  2.31419
 C  -2.68937  0.22131  3.99414
 C  -3.85268  -0.80082  3.25086
 C  -5.17969  -1.71016  3.84459
 H  -5.48600  -1.22206  4.84684
 H  -6.04116  -1.57224  3.08539
 H  -3.21879  -1.58077  2.73472
 H  -4.33859  -0.10837  2.45533
 H  -3.28274  1.08762  4.49119
 H  -2.17826  -0.39959  4.83108
 C  -4.95430  -3.31070  4.09223
 C  -5.05399  -4.29343  2.70510
 C  -6.54918  -4.87509  2.19156
 H  -6.38431  -5.81469  1.53421
 H  -7.07863  -4.05798  1.56537
 H  -7.19844  -5.14994  3.10710
 H  -4.38932  -5.21598  2.90748
 H  -4.62042  -3.68928  1.83274
 H  -5.75899  -3.69623  4.82828
 H  -3.91075  -3.48395  4.55674
 H  2.13922  -3.15888  -1.51578
 H  -1.65310  2.97691  3.38357
*
