# ================================================================
# Orca input file made by Matty Jones
# ================================================================
! ZINDO/S 
! NOPOP
! NOMOPRINT
* xyz 0   1
 C  1.80327  -3.40330  -3.33107
 C  2.64890  -2.42294  -2.80982
 C  1.99504  -1.48307  -1.95348
 C  0.62620  -1.72245  -1.79775
 S  0.30150  -3.06551  -2.71488
 H  3.76991  -2.37520  -3.02392
 C  2.79077  -0.27676  -1.25139
 C  3.85439  0.59452  -2.23451
 C  4.53622  1.90101  -1.40661
 H  3.67593  2.41623  -0.82544
 H  4.91628  2.63967  -2.21514
 H  4.69885  -0.10579  -2.57974
 H  3.27365  0.99293  -3.14364
 H  2.10177  0.53926  -0.82595
 H  3.42373  -0.70497  -0.36640
 C  5.74891  1.58546  -0.37134
 C  7.29609  1.47352  -1.03218
 C  7.74962  -0.10803  -1.38516
 H  8.79027  -0.31415  -0.92095
 H  7.80212  -0.24613  -2.53268
 H  6.97849  -0.84856  -0.94230
 H  7.32520  2.08737  -2.00702
 H  8.04746  1.91294  -0.27750
 H  5.52752  0.59441  0.18408
 H  5.78719  2.43646  0.41688
 C  -0.51479  -0.85201  -0.95746
 C  -1.87751  -1.09147  -0.77424
 C  -2.54192  -0.10563  0.02007
 C  -1.69960  0.91744  0.46632
 S  -0.19822  0.55353  -0.13690
 H  -2.42676  -1.99066  -1.21579
 C  -4.10733  -0.09662  0.40881
 C  -4.81254  -1.38751  1.23889
 C  -4.69446  -1.13275  2.90799
 H  -4.55488  -2.17002  3.40376
 H  -3.74090  -0.50623  3.10612
 H  -5.92281  -1.46175  0.94902
 H  -4.26540  -2.36042  0.96949
 H  -4.35252  0.85807  1.02889
 H  -4.72579  -0.00989  -0.58355
 C  -5.97510  -0.39300  3.58859
 C  -5.97467  1.28958  3.45190
 C  -7.12619  1.99913  2.44234
 H  -6.59420  2.70754  1.69649
 H  -7.89154  2.61528  3.05153
 H  -7.68691  1.17232  1.85738
 H  -5.97521  1.64714  4.53619
 H  -4.96423  1.57461  2.98092
 H  -6.94984  -0.78727  3.10935
 H  -5.99665  -0.64082  4.72034
 H  2.06576  -4.19654  -3.98334
 H  -1.96510  1.75104  1.06484
*
