# ================================================================
# Orca input file made by Matty Jones
# ================================================================
! ZINDO/S 
! NOPOP
! NOMOPRINT
* xyz 0   1
 C  1.90772  -1.96590  -3.50247
 C  0.98560  -2.63295  -2.69461
 C  0.23549  -1.77360  -1.83256
 C  0.56698  -0.42115  -1.96037
 S  1.75401  -0.36064  -3.11697
 H  1.04671  -3.75360  -2.49861
 C  -0.88886  -2.36100  -0.81865
 C  -2.05217  -3.38314  -1.56193
 C  -3.37918  -4.29248  -0.96820
 H  -3.68548  -3.80437  0.03405
 H  -4.24065  -4.15455  -1.72741
 H  -1.41827  -4.16309  -2.07808
 H  -2.53808  -2.69069  -2.35746
 H  -1.48223  -1.49469  -0.32161
 H  -0.37775  -2.98190  0.01829
 C  -3.15378  -5.89302  -0.72056
 C  -3.25348  -6.87575  -2.10769
 C  -4.74867  -7.45741  -2.62124
 H  -4.58380  -8.39700  -3.27858
 H  -5.27812  -6.64029  -3.24742
 H  -5.39793  -7.73226  -1.70569
 H  -2.58881  -7.79829  -1.90531
 H  -2.81991  -6.27160  -2.98005
 H  -3.95847  -6.27855  0.01548
 H  -2.11024  -6.06626  -0.25606
 C  -0.04223  0.77565  -1.00032
 C  0.53920  1.43747  0.08219
 C  -0.30301  2.42345  0.68451
 C  -1.55579  2.54079  0.07453
 S  -1.55550  1.43400  -1.16056
 H  1.59678  1.22670  0.45887
 C  0.11377  3.35745  1.94042
 C  1.42837  4.40380  1.70635
 C  1.84351  5.44936  2.97756
 H  0.86458  5.92708  3.36752
 H  2.31301  4.82500  3.82570
 H  2.35258  3.76205  1.46486
 H  1.16295  5.06256  0.79756
 H  -0.77800  3.98003  2.34299
 H  0.44542  2.65479  2.81680
 C  2.86026  6.63126  2.49276
 C  4.52367  6.34578  2.54634
 C  4.97318  4.89074  3.25249
 H  6.11693  4.75037  3.13950
 H  4.42367  4.01728  2.73140
 H  4.69698  4.91301  4.37645
 H  4.91587  6.34733  1.46067
 H  5.02157  7.20517  3.13181
 H  2.60679  6.91358  1.39743
 H  2.66877  7.56528  3.15367
 H  2.56725  -2.39505  -4.21272
 H  -2.34120  3.19928  0.34493
*
